<?xml version="1.0" encoding="UTF-8"?>

<!-- generated on Fri Mar 13 01:33:47 2020 by SUMO netconvert Version 0.32.0
<?xml version="1.0" encoding="UTF-8"?>

<configuration xmlns:xsi="http://www.w3.org/2001/XMLSchema-instance" xsi:noNamespaceSchemaLocation="http://sumo.dlr.de/xsd/netconvertConfiguration.xsd">

    <input>
        <osm-files value="HariNagar_map.osm"/>
    </input>

    <output>
        <output-file value="test.net.xml"/>
    </output>

    <projection>
        <proj.utm value="true"/>
    </projection>

</configuration>
-->

<net version="0.27" xmlns:xsi="http://www.w3.org/2001/XMLSchema-instance" xsi:noNamespaceSchemaLocation="http://sumo.dlr.de/xsd/net_file.xsd">

    <location netOffset="-704226.78,-3167552.46" convBoundary="0.00,0.00,2800.34,1465.27" origBoundary="77.088971,28.618603,77.117628,28.631813" projParameter="+proj=utm +zone=43 +ellps=WGS84 +datum=WGS84 +units=m +no_defs"/>

    <type id="highway.bridleway" priority="1" numLanes="1" speed="2.78" allow="pedestrian" oneway="1" width="2.00"/>
    <type id="highway.bus_guideway" priority="1" numLanes="1" speed="8.33" allow="bus" oneway="1"/>
    <type id="highway.cycleway" priority="1" numLanes="1" speed="5.56" allow="bicycle" oneway="0" width="1.00"/>
    <type id="highway.footway" priority="1" numLanes="1" speed="2.78" allow="pedestrian" oneway="1" width="2.00"/>
    <type id="highway.ford" priority="1" numLanes="1" speed="2.78" allow="army" oneway="0"/>
    <type id="highway.living_street" priority="3" numLanes="1" speed="2.78" disallow="tram rail_urban rail rail_electric ship" oneway="0"/>
    <type id="highway.motorway" priority="13" numLanes="2" speed="44.44" allow="private emergency authority army vip passenger hov taxi bus coach delivery truck trailer motorcycle evehicle custom1 custom2" oneway="1"/>
    <type id="highway.motorway_link" priority="12" numLanes="1" speed="22.22" allow="private emergency authority army vip passenger hov taxi bus coach delivery truck trailer motorcycle evehicle custom1 custom2" oneway="1"/>
    <type id="highway.path" priority="1" numLanes="1" speed="2.78" allow="bicycle pedestrian" oneway="1" width="2.00"/>
    <type id="highway.pedestrian" priority="1" numLanes="1" speed="2.78" allow="pedestrian" oneway="1" width="2.00"/>
    <type id="highway.primary" priority="9" numLanes="2" speed="27.78" disallow="tram rail_urban rail rail_electric ship" oneway="0"/>
    <type id="highway.primary_link" priority="8" numLanes="1" speed="22.22" disallow="tram rail_urban rail rail_electric ship" oneway="0"/>
    <type id="highway.raceway" priority="14" numLanes="2" speed="83.33" allow="vip" oneway="0"/>
    <type id="highway.residential" priority="4" numLanes="1" speed="13.89" disallow="tram rail_urban rail rail_electric ship" oneway="0"/>
    <type id="highway.secondary" priority="7" numLanes="2" speed="27.78" disallow="tram rail_urban rail rail_electric ship" oneway="0"/>
    <type id="highway.secondary_link" priority="6" numLanes="1" speed="22.22" disallow="tram rail_urban rail rail_electric ship" oneway="0"/>
    <type id="highway.service" priority="2" numLanes="1" speed="5.56" allow="delivery bicycle pedestrian" oneway="0"/>
    <type id="highway.services" priority="1" numLanes="1" speed="8.33" disallow="tram rail_urban rail rail_electric ship" oneway="0"/>
    <type id="highway.stairs" priority="1" numLanes="1" speed="1.39" allow="pedestrian" oneway="1" width="2.00"/>
    <type id="highway.step" priority="1" numLanes="1" speed="1.39" allow="pedestrian" oneway="1" width="2.00"/>
    <type id="highway.steps" priority="1" numLanes="1" speed="1.39" allow="pedestrian" oneway="1" width="2.00"/>
    <type id="highway.tertiary" priority="6" numLanes="1" speed="22.22" disallow="tram rail_urban rail rail_electric ship" oneway="0"/>
    <type id="highway.tertiary_link" priority="5" numLanes="1" speed="22.22" disallow="tram rail_urban rail rail_electric ship" oneway="0"/>
    <type id="highway.track" priority="1" numLanes="1" speed="5.56" disallow="tram rail_urban rail rail_electric ship" oneway="0"/>
    <type id="highway.trunk" priority="11" numLanes="2" speed="27.78" disallow="tram rail_urban rail rail_electric bicycle pedestrian ship" oneway="0"/>
    <type id="highway.trunk_link" priority="10" numLanes="1" speed="22.22" disallow="tram rail_urban rail rail_electric bicycle pedestrian ship" oneway="0"/>
    <type id="highway.unclassified" priority="5" numLanes="1" speed="13.89" disallow="tram rail_urban rail rail_electric ship" oneway="0"/>
    <type id="highway.unsurfaced" priority="1" numLanes="1" speed="8.33" disallow="tram rail_urban rail rail_electric ship" oneway="0"/>
    <type id="railway.light_rail" priority="15" numLanes="1" speed="27.78" allow="rail_urban" oneway="1"/>
    <type id="railway.preserved" priority="15" numLanes="1" speed="27.78" allow="rail" oneway="1"/>
    <type id="railway.rail" priority="15" numLanes="1" speed="83.33" allow="rail rail_electric" oneway="1"/>
    <type id="railway.subway" priority="15" numLanes="1" speed="27.78" allow="rail_urban" oneway="1"/>
    <type id="railway.tram" priority="15" numLanes="1" speed="13.89" allow="tram" oneway="1"/>

    <edge id=":1986130051_0" function="internal">
        <lane id=":1986130051_0_0" index="0" disallow="tram rail_urban rail rail_electric ship" speed="22.22" length="8.89" shape="2113.92,706.34 2114.99,708.75 2115.70,710.43 2116.56,712.02 2118.11,714.13"/>
    </edge>
    <edge id=":1986130051_1" function="internal">
        <lane id=":1986130051_1_0" index="0" disallow="tram rail_urban rail rail_electric ship" speed="22.22" length="8.90" shape="2111.00,708.93 2113.29,710.25 2114.92,711.13 2116.36,712.20 2118.11,714.13"/>
    </edge>
    <edge id=":2347264112_0" function="internal">
        <lane id=":2347264112_0_0" index="0" disallow="tram rail_urban rail rail_electric ship" speed="13.89" length="4.82" shape="2533.89,1111.94 2533.05,1113.16 2532.21,1113.56 2531.40,1113.13 2530.59,1111.88"/>
    </edge>
    <edge id=":2347264132_0" function="internal">
        <lane id=":2347264132_0_0" index="0" disallow="tram rail_urban rail rail_electric ship" speed="13.89" length="4.82" shape="2401.84,1372.71 2400.94,1373.90 2400.09,1374.26 2399.29,1373.80 2398.55,1372.51"/>
    </edge>
    <edge id=":2432087700_0" function="internal">
        <lane id=":2432087700_0_0" index="0" disallow="tram rail_urban rail rail_electric ship" speed="22.22" length="0.10" shape="2134.30,0.14 2134.27,0.14"/>
    </edge>
    <edge id=":2507728906_0" function="internal">
        <lane id=":2507728906_0_0" index="0" disallow="tram rail_urban rail rail_electric ship" speed="22.22" length="9.51" shape="1669.69,693.02 1660.19,692.99"/>
    </edge>
    <edge id=":2507728906_1" function="internal">
        <lane id=":2507728906_1_0" index="0" disallow="tram rail_urban rail rail_electric ship" speed="22.22" length="7.86" shape="1669.69,693.02 1666.89,692.82 1664.89,692.23 1663.70,691.25 1663.31,689.88"/>
    </edge>
    <edge id=":2507728906_2" function="internal">
        <lane id=":2507728906_2_0" index="0" disallow="tram rail_urban rail rail_electric ship" speed="22.22" length="1.11" shape="1666.61,689.91 1666.28,690.98"/>
    </edge>
    <edge id=":2507728906_3" function="internal">
        <lane id=":2507728906_3_0" index="0" disallow="tram rail_urban rail rail_electric ship" speed="22.22" length="1.17" shape="1666.61,689.91 1665.95,690.88"/>
    </edge>
    <edge id=":2507728906_4" function="internal">
        <lane id=":2507728906_4_0" index="0" speed="22.22" length="6.74" shape="1666.28,690.98 1666.20,691.27 1664.99,692.24 1662.99,692.81 1660.19,692.99"/>
    </edge>
    <edge id=":2507728906_5" function="internal">
        <lane id=":2507728906_5_0" index="0" speed="22.22" length="3.65" shape="1665.95,690.88 1665.77,691.14 1664.94,691.55 1664.12,691.13 1663.31,689.88"/>
    </edge>
    <edge id=":2507728910_0" function="internal">
        <lane id=":2507728910_0_0" index="0" disallow="tram rail_urban rail rail_electric ship" speed="13.89" length="4.82" shape="1895.21,996.98 1894.10,997.96 1893.20,998.15 1892.50,997.55 1892.02,996.14"/>
    </edge>
    <edge id=":2507728913_0" function="internal">
        <lane id=":2507728913_0_0" index="0" disallow="tram rail_urban rail rail_electric ship" speed="22.22" length="4.82" shape="1666.32,258.91 1667.16,257.68 1667.98,257.27 1668.81,257.68 1669.62,258.93"/>
    </edge>
    <edge id=":2507728914_0" function="internal">
        <lane id=":2507728914_0_0" index="0" disallow="tram rail_urban rail rail_electric ship" speed="18.05" length="5.31" shape="1671.27,513.71 1669.77,513.55 1668.70,513.95 1668.04,514.89 1667.82,516.39"/>
    </edge>
    <edge id=":2507728914_1" function="internal">
        <lane id=":2507728914_1_0" index="0" disallow="tram rail_urban rail rail_electric ship" speed="13.89" length="9.96" shape="1671.27,513.71 1668.41,512.99 1666.42,512.59 1664.40,512.40 1661.45,512.34"/>
    </edge>
    <edge id=":2507728914_2" function="internal">
        <lane id=":2507728914_2_0" index="0" disallow="tram rail_urban rail rail_electric ship" speed="18.05" length="11.10" shape="1671.27,513.71 1668.33,512.59 1666.25,510.93 1665.03,508.73 1664.66,505.99"/>
    </edge>
    <edge id=":2507728914_3" function="internal">
        <lane id=":2507728914_3_0" index="0" disallow="tram rail_urban rail rail_electric ship" speed="13.89" length="4.82" shape="1671.27,513.71 1670.27,512.61 1670.07,511.71 1670.68,511.01 1672.08,510.51"/>
    </edge>
    <edge id=":2507728914_4" function="internal">
        <lane id=":2507728914_4_0" index="0" disallow="tram rail_urban rail rail_electric ship" speed="18.05" length="6.60" shape="1667.96,506.06 1668.19,507.61 1668.95,508.87 1670.25,509.84 1672.08,510.51"/>
    </edge>
    <edge id=":2507728914_5" function="internal">
        <lane id=":2507728914_5_0" index="0" disallow="tram rail_urban rail rail_electric ship" speed="22.22" length="10.33" shape="1667.96,506.06 1667.82,516.39"/>
    </edge>
    <edge id=":2507728914_6" function="internal">
        <lane id=":2507728914_6_0" index="0" disallow="tram rail_urban rail rail_electric ship" speed="18.05" length="5.14" shape="1667.96,506.06 1667.50,508.83 1666.26,510.80"/>
    </edge>
    <edge id=":2507728914_7" function="internal">
        <lane id=":2507728914_7_0" index="0" disallow="tram rail_urban rail rail_electric ship" speed="22.22" length="2.41" shape="1667.96,506.06 1667.11,507.28 1666.27,507.67"/>
    </edge>
    <edge id=":2507728914_16" function="internal">
        <lane id=":2507728914_16_0" index="0" speed="18.05" length="5.15" shape="1666.26,510.80 1664.25,511.97 1661.45,512.34"/>
    </edge>
    <edge id=":2507728914_17" function="internal">
        <lane id=":2507728914_17_0" index="0" speed="22.22" length="2.41" shape="1666.27,507.67 1665.46,507.24 1664.66,505.99"/>
    </edge>
    <edge id=":2507728914_8" function="internal">
        <lane id=":2507728914_8_0" index="0" disallow="tram rail_urban rail rail_electric ship" speed="18.05" length="5.00" shape="1661.49,509.04 1662.85,508.86 1663.83,508.29 1664.44,507.34 1664.66,505.99"/>
    </edge>
    <edge id=":2507728914_9" function="internal">
        <lane id=":2507728914_9_0" index="0" disallow="tram rail_urban rail rail_electric ship" speed="13.89" length="10.73" shape="1661.49,509.04 1664.57,509.12 1666.84,509.34 1669.08,509.77 1672.08,510.51"/>
    </edge>
    <edge id=":2507728914_10" function="internal">
        <lane id=":2507728914_10_0" index="0" disallow="tram rail_urban rail rail_electric ship" speed="18.05" length="11.04" shape="1661.49,509.04 1664.28,509.52 1666.26,510.91 1667.44,513.20 1667.82,516.39"/>
    </edge>
    <edge id=":2507728914_11" function="internal">
        <lane id=":2507728914_11_0" index="0" disallow="tram rail_urban rail rail_electric ship" speed="13.89" length="4.82" shape="1661.49,509.04 1662.72,509.88 1663.12,510.70 1662.70,511.53 1661.45,512.34"/>
    </edge>
    <edge id=":2507728914_12" function="internal">
        <lane id=":2507728914_12_0" index="0" disallow="tram rail_urban rail rail_electric ship" speed="18.05" length="5.74" shape="1664.52,516.36 1664.34,514.61 1663.77,513.36 1662.81,512.60 1661.45,512.34"/>
    </edge>
    <edge id=":2507728914_13" function="internal">
        <lane id=":2507728914_13_0" index="0" disallow="tram rail_urban rail rail_electric ship" speed="22.22" length="10.38" shape="1664.52,516.36 1664.66,505.99"/>
    </edge>
    <edge id=":2507728914_14" function="internal">
        <lane id=":2507728914_14_0" index="0" disallow="tram rail_urban rail rail_electric ship" speed="18.05" length="5.55" shape="1664.52,516.36 1665.01,513.10 1666.29,511.24"/>
    </edge>
    <edge id=":2507728914_15" function="internal">
        <lane id=":2507728914_15_0" index="0" disallow="tram rail_urban rail rail_electric ship" speed="22.22" length="2.41" shape="1664.52,516.36 1665.35,515.13 1666.18,514.72"/>
    </edge>
    <edge id=":2507728914_18" function="internal">
        <lane id=":2507728914_18_0" index="0" speed="18.05" length="6.07" shape="1666.29,511.24 1666.44,511.03 1668.79,510.17 1672.08,510.51"/>
    </edge>
    <edge id=":2507728914_19" function="internal">
        <lane id=":2507728914_19_0" index="0" speed="22.22" length="2.41" shape="1666.18,514.72 1667.00,515.14 1667.82,516.39"/>
    </edge>
    <edge id=":2706621867_0" function="internal">
        <lane id=":2706621867_0_0" index="0" disallow="tram rail_urban rail rail_electric ship" speed="13.89" length="6.96" shape="1814.18,439.00 1812.19,438.48 1810.78,438.29 1809.36,438.45 1807.37,438.94"/>
    </edge>
    <edge id=":2706621867_1" function="internal">
        <lane id=":2706621867_1_0" index="0" disallow="tram rail_urban rail rail_electric ship" speed="13.89" length="4.57" shape="1814.18,439.00 1811.95,438.04 1810.37,436.60"/>
    </edge>
    <edge id=":2706621867_2" function="internal">
        <lane id=":2706621867_2_0" index="0" disallow="tram rail_urban rail rail_electric ship" speed="13.89" length="2.41" shape="1814.18,439.00 1813.21,437.87 1813.03,436.96"/>
    </edge>
    <edge id=":2706621867_9" function="internal">
        <lane id=":2706621867_9_0" index="0" speed="13.89" length="4.57" shape="1810.37,436.60 1809.45,434.67 1809.18,432.25"/>
    </edge>
    <edge id=":2706621867_10" function="internal">
        <lane id=":2706621867_10_0" index="0" speed="13.89" length="2.41" shape="1813.03,436.96 1813.65,436.28 1815.06,435.82"/>
    </edge>
    <edge id=":2706621867_3" function="internal">
        <lane id=":2706621867_3_0" index="0" disallow="tram rail_urban rail rail_electric ship" speed="13.89" length="4.72" shape="1812.48,432.33 1812.62,433.58 1813.09,434.58 1813.91,435.32 1815.06,435.82"/>
    </edge>
    <edge id=":2706621867_4" function="internal">
        <lane id=":2706621867_4_0" index="0" disallow="tram rail_urban rail rail_electric ship" speed="13.89" length="9.04" shape="1812.48,432.33 1812.12,434.72 1811.14,436.62 1809.56,438.02 1807.37,438.94"/>
    </edge>
    <edge id=":2706621867_5" function="internal">
        <lane id=":2706621867_5_0" index="0" disallow="tram rail_urban rail rail_electric ship" speed="13.89" length="4.82" shape="1812.48,432.33 1811.63,433.55 1810.79,433.94 1809.98,433.51 1809.18,432.25"/>
    </edge>
    <edge id=":2706621867_6" function="internal">
        <lane id=":2706621867_6_0" index="0" disallow="tram rail_urban rail rail_electric ship" speed="13.89" length="4.76" shape="1806.51,435.75 1807.66,435.27 1808.48,434.53 1808.99,433.52 1809.18,432.25"/>
    </edge>
    <edge id=":2706621867_7" function="internal">
        <lane id=":2706621867_7_0" index="0" disallow="tram rail_urban rail rail_electric ship" speed="13.89" length="8.73" shape="1806.51,435.75 1809.01,435.13 1810.79,434.94 1812.57,435.17 1815.06,435.82"/>
    </edge>
    <edge id=":2706621867_8" function="internal">
        <lane id=":2706621867_8_0" index="0" disallow="tram rail_urban rail rail_electric ship" speed="13.89" length="2.41" shape="1806.51,435.75 1807.92,436.23 1808.53,436.92"/>
    </edge>
    <edge id=":2706621867_11" function="internal">
        <lane id=":2706621867_11_0" index="0" speed="13.89" length="2.41" shape="1808.53,436.92 1808.35,437.82 1807.37,438.94"/>
    </edge>
    <edge id=":316376937_0" function="internal">
        <lane id=":316376937_0_0" index="0" disallow="tram rail_urban rail rail_electric ship" speed="13.89" length="4.82" shape="1294.33,503.81 1293.51,502.57 1293.44,501.65 1294.14,501.05 1295.60,500.76"/>
    </edge>
    <edge id=":316376946_0" function="internal">
        <lane id=":316376946_0_0" index="0" disallow="tram rail_urban rail rail_electric ship" speed="22.22" length="0.10" shape="1217.29,694.76 1217.29,694.76"/>
    </edge>
    <edge id=":316376947_0" function="internal">
        <lane id=":316376947_0_0" index="0" disallow="tram rail_urban rail rail_electric ship" speed="22.22" length="0.29" shape="1207.02,690.32 1207.29,690.44"/>
    </edge>
    <edge id=":3649457469_0" function="internal">
        <lane id=":3649457469_0_0" index="0" disallow="tram rail_urban rail rail_electric ship" speed="22.22" length="5.19" shape="2131.18,647.93 2130.95,653.12"/>
    </edge>
    <edge id=":3649457470_0" function="internal">
        <lane id=":3649457470_0_0" index="0" disallow="tram rail_urban rail rail_electric ship" speed="22.22" length="0.63" shape="2138.17,674.67 2137.99,674.64 2137.87,674.62 2137.74,674.63 2137.56,674.66"/>
    </edge>
    <edge id=":3649457471_0" function="internal">
        <lane id=":3649457471_0_0" index="0" disallow="tram rail_urban rail rail_electric ship" speed="22.22" length="20.80" shape="2132.15,675.60 2126.89,677.08 2122.45,679.55 2118.82,682.99 2116.00,687.42"/>
    </edge>
    <edge id=":3649457471_1" function="internal">
        <lane id=":3649457471_1_0" index="0" disallow="tram rail_urban rail rail_electric ship" speed="22.22" length="20.31" shape="2132.15,675.60 2127.80,676.92 2122.70,679.15 2117.68,681.65 2113.59,683.75"/>
    </edge>
    <edge id=":3649457471_2" function="internal">
        <lane id=":3649457471_2_0" index="0" disallow="tram rail_urban rail rail_electric ship" speed="22.22" length="2.98" shape="2129.01,672.58 2127.61,675.22"/>
    </edge>
    <edge id=":3649457471_3" function="internal">
        <lane id=":3649457471_3_0" index="0" disallow="tram rail_urban rail rail_electric ship" speed="22.22" length="3.91" shape="2129.01,672.58 2127.86,674.65 2126.70,675.66"/>
    </edge>
    <edge id=":3649457471_4" function="internal">
        <lane id=":3649457471_4_0" index="0" speed="22.22" length="16.93" shape="2127.61,675.22 2127.00,676.36 2123.08,680.18 2118.87,683.91 2116.00,687.42"/>
    </edge>
    <edge id=":3649457471_5" function="internal">
        <lane id=":3649457471_5_0" index="0" speed="22.22" length="15.44" shape="2126.70,675.66 2124.91,677.20 2120.15,680.23 2113.59,683.75"/>
    </edge>
    <edge id=":3649457472_0" function="internal">
        <lane id=":3649457472_0_0" index="0" disallow="tram rail_urban rail rail_electric ship" speed="22.22" length="6.35" shape="2148.84,677.81 2147.26,676.82 2146.06,676.34 2144.78,676.08 2142.92,675.72"/>
    </edge>
    <edge id=":3649457472_1" function="internal">
        <lane id=":3649457472_1_0" index="0" disallow="tram rail_urban rail rail_electric ship" speed="22.22" length="6.08" shape="2148.84,677.81 2147.48,676.70 2146.79,675.69 2146.36,674.47 2145.82,672.74"/>
    </edge>
    <edge id=":3649457478_0" function="internal">
        <lane id=":3649457478_0_0" index="0" disallow="tram rail_urban rail rail_electric ship" speed="18.05" length="7.39" shape="2164.47,701.34 2163.40,700.96 2162.48,699.82 2161.72,697.91 2161.12,695.24"/>
    </edge>
    <edge id=":3649457478_1" function="internal">
        <lane id=":3649457478_1_0" index="0" disallow="tram rail_urban rail rail_electric ship" speed="13.89" length="4.82" shape="2164.47,701.34 2163.23,700.52 2162.81,699.69 2163.22,698.87 2164.46,698.04"/>
    </edge>
    <edge id=":3649457478_2" function="internal">
        <lane id=":3649457478_2_0" index="0" disallow="tram rail_urban rail rail_electric ship" speed="22.22" length="8.92" shape="2160.89,704.05 2161.45,701.47 2161.65,699.66 2161.54,697.84 2161.12,695.24"/>
    </edge>
    <edge id=":3649457478_3" function="internal">
        <lane id=":3649457478_3_0" index="0" disallow="tram rail_urban rail rail_electric ship" speed="18.05" length="7.37" shape="2160.89,704.05 2161.63,701.42 2162.47,699.54 2163.41,698.42 2164.46,698.04"/>
    </edge>
    <edge id=":3649457480_0" function="internal">
        <lane id=":3649457480_0_0" index="0" disallow="tram rail_urban rail rail_electric ship" speed="22.22" length="12.09" shape="2118.21,714.26 2120.31,716.86 2122.25,718.85 2124.53,720.32 2127.61,721.37"/>
    </edge>
    <edge id=":3649457480_1" function="internal">
        <lane id=":3649457480_1_0" index="0" disallow="tram rail_urban rail rail_electric ship" speed="22.22" length="11.89" shape="2118.21,714.26 2120.18,716.86 2121.67,719.09 2123.10,721.36 2124.85,724.11"/>
    </edge>
    <edge id=":3649457483_0" function="internal">
        <lane id=":3649457483_0_0" index="0" disallow="tram rail_urban rail rail_electric ship" speed="22.22" length="6.55" shape="2141.40,722.66 2143.33,722.40 2144.68,722.22 2145.94,721.81 2147.62,720.89"/>
    </edge>
    <edge id=":3649457483_1" function="internal">
        <lane id=":3649457483_1_0" index="0" disallow="tram rail_urban rail rail_electric ship" speed="22.22" length="6.53" shape="2143.90,726.06 2144.70,724.28 2145.28,723.03 2146.10,722.01 2147.62,720.89"/>
    </edge>
    <edge id=":4101041350_0" function="internal">
        <lane id=":4101041350_0_0" index="0" disallow="tram rail_urban rail rail_electric ship" speed="13.89" length="4.82" shape="2799.24,458.59 2800.71,458.38 2801.57,458.72 2801.81,459.62 2801.44,461.05"/>
    </edge>
    <edge id=":427834010_0" function="internal">
        <lane id=":427834010_0_0" index="0" disallow="tram rail_urban rail rail_electric ship" speed="22.22" length="0.34" shape="387.36,345.28 387.26,345.25 387.20,345.23 387.14,345.20 387.05,345.15"/>
    </edge>
    <edge id=":427834022_0" function="internal">
        <lane id=":427834022_0_0" index="0" disallow="tram rail_urban rail rail_electric ship" speed="22.22" length="0.27" shape="1209.66,684.07 1209.41,683.96"/>
    </edge>
    <edge id=":427834023_0" function="internal">
        <lane id=":427834023_0_0" index="0" disallow="tram rail_urban rail rail_electric ship" speed="22.22" length="0.26" shape="1219.95,688.36 1219.88,688.34 1219.83,688.33 1219.78,688.31 1219.71,688.28"/>
    </edge>
    <edge id=":4597615127_0" function="internal">
        <lane id=":4597615127_0_0" index="0" disallow="tram rail_urban rail rail_electric ship" speed="22.22" length="9.72" shape="1955.16,437.43 1955.09,447.16"/>
    </edge>
    <edge id=":4597615127_1" function="internal">
        <lane id=":4597615127_1_0" index="0" disallow="tram rail_urban rail rail_electric ship" speed="18.05" length="5.52" shape="1955.16,437.43 1954.66,440.75 1953.42,442.53"/>
    </edge>
    <edge id=":4597615127_2" function="internal">
        <lane id=":4597615127_2_0" index="0" disallow="tram rail_urban rail rail_electric ship" speed="22.22" length="2.41" shape="1955.16,437.43 1954.32,438.67 1953.49,439.07"/>
    </edge>
    <edge id=":4597615127_9" function="internal">
        <lane id=":4597615127_9_0" index="0" speed="18.05" length="6.23" shape="1953.42,442.53 1953.22,442.82 1950.84,443.65 1947.51,443.24"/>
    </edge>
    <edge id=":4597615127_10" function="internal">
        <lane id=":4597615127_10_0" index="0" speed="22.22" length="2.41" shape="1953.49,439.07 1952.67,438.66 1951.86,437.41"/>
    </edge>
    <edge id=":4597615127_3" function="internal">
        <lane id=":4597615127_3_0" index="0" disallow="tram rail_urban rail rail_electric ship" speed="18.05" length="5.34" shape="1948.38,440.05 1949.89,440.24 1950.97,439.86 1951.63,438.92 1951.86,437.41"/>
    </edge>
    <edge id=":4597615127_4" function="internal">
        <lane id=":4597615127_4_0" index="0" disallow="tram rail_urban rail rail_electric ship" speed="18.05" length="10.59" shape="1948.38,440.05 1951.33,441.18 1953.43,442.75 1954.68,444.74 1955.09,447.16"/>
    </edge>
    <edge id=":4597615127_5" function="internal">
        <lane id=":4597615127_5_0" index="0" disallow="tram rail_urban rail rail_electric ship" speed="13.89" length="4.82" shape="1948.38,440.05 1949.36,441.17 1949.54,442.08 1948.92,442.77 1947.51,443.24"/>
    </edge>
    <edge id=":4597615127_6" function="internal">
        <lane id=":4597615127_6_0" index="0" disallow="tram rail_urban rail rail_electric ship" speed="18.05" length="6.23" shape="1951.79,447.14 1951.53,445.87 1950.73,444.80 1949.39,443.92 1947.51,443.24"/>
    </edge>
    <edge id=":4597615127_7" function="internal">
        <lane id=":4597615127_7_0" index="0" disallow="tram rail_urban rail rail_electric ship" speed="22.22" length="9.72" shape="1951.79,447.14 1951.86,437.41"/>
    </edge>
    <edge id=":4597615127_8" function="internal">
        <lane id=":4597615127_8_0" index="0" disallow="tram rail_urban rail rail_electric ship" speed="22.22" length="2.41" shape="1951.79,447.14 1952.62,445.90 1953.45,445.50"/>
    </edge>
    <edge id=":4597615127_11" function="internal">
        <lane id=":4597615127_11_0" index="0" speed="22.22" length="2.41" shape="1953.45,445.50 1954.27,445.91 1955.09,447.16"/>
    </edge>
    <edge id=":4597615128_0" function="internal">
        <lane id=":4597615128_0_0" index="0" disallow="tram rail_urban rail rail_electric ship" speed="18.05" length="4.97" shape="1672.98,439.97 1671.89,440.26 1670.42,440.71 1669.14,441.30 1668.58,442.00"/>
    </edge>
    <edge id=":4597615128_1" function="internal">
        <lane id=":4597615128_1_0" index="0" disallow="tram rail_urban rail rail_electric ship" speed="18.05" length="11.86" shape="1672.98,439.97 1669.62,440.41 1667.22,439.58 1665.79,437.48 1665.33,434.12"/>
    </edge>
    <edge id=":4597615128_2" function="internal">
        <lane id=":4597615128_2_0" index="0" disallow="tram rail_urban rail rail_electric ship" speed="13.89" length="4.82" shape="1672.98,439.97 1671.57,439.50 1670.95,438.82 1671.12,437.91 1672.10,436.79"/>
    </edge>
    <edge id=":4597615128_3" function="internal">
        <lane id=":4597615128_3_0" index="0" disallow="tram rail_urban rail rail_electric ship" speed="18.05" length="5.37" shape="1668.63,434.14 1668.84,435.66 1669.49,436.61 1670.57,436.99 1672.10,436.79"/>
    </edge>
    <edge id=":4597615128_4" function="internal">
        <lane id=":4597615128_4_0" index="0" disallow="tram rail_urban rail rail_electric ship" speed="22.22" length="7.86" shape="1668.63,434.14 1668.58,442.00"/>
    </edge>
    <edge id=":4597615128_5" function="internal">
        <lane id=":4597615128_5_0" index="0" disallow="tram rail_urban rail rail_electric ship" speed="22.22" length="2.41" shape="1668.63,434.14 1667.80,435.37 1666.97,435.78"/>
    </edge>
    <edge id=":4597615128_9" function="internal">
        <lane id=":4597615128_9_0" index="0" speed="22.22" length="2.41" shape="1666.97,435.78 1666.15,435.36 1665.33,434.12"/>
    </edge>
    <edge id=":4597615128_6" function="internal">
        <lane id=":4597615128_6_0" index="0" disallow="tram rail_urban rail rail_electric ship" speed="22.22" length="7.86" shape="1665.28,441.98 1665.33,434.12"/>
    </edge>
    <edge id=":4597615128_7" function="internal">
        <lane id=":4597615128_7_0" index="0" disallow="tram rail_urban rail rail_electric ship" speed="18.05" length="3.51" shape="1665.28,441.98 1665.72,440.42 1667.00,439.03"/>
    </edge>
    <edge id=":4597615128_8" function="internal">
        <lane id=":4597615128_8_0" index="0" disallow="tram rail_urban rail rail_electric ship" speed="22.22" length="2.41" shape="1665.28,441.98 1666.12,440.75 1666.94,440.34"/>
    </edge>
    <edge id=":4597615128_10" function="internal">
        <lane id=":4597615128_10_0" index="0" speed="18.05" length="5.59" shape="1667.00,439.03 1669.12,437.82 1672.10,436.79"/>
    </edge>
    <edge id=":4597615128_11" function="internal">
        <lane id=":4597615128_11_0" index="0" speed="22.22" length="2.41" shape="1666.94,440.34 1667.77,440.76 1668.58,442.00"/>
    </edge>
    <edge id=":4597615129_0" function="internal">
        <lane id=":4597615129_0_0" index="0" disallow="tram rail_urban rail rail_electric ship" speed="18.05" length="6.25" shape="1673.09,407.98 1671.20,408.64 1669.85,409.51 1669.03,410.57 1668.76,411.84"/>
    </edge>
    <edge id=":4597615129_1" function="internal">
        <lane id=":4597615129_1_0" index="0" disallow="tram rail_urban rail rail_electric ship" speed="18.05" length="11.76" shape="1673.09,407.98 1669.76,408.36 1667.39,407.50 1665.97,405.41 1665.51,402.09"/>
    </edge>
    <edge id=":4597615129_2" function="internal">
        <lane id=":4597615129_2_0" index="0" disallow="tram rail_urban rail rail_electric ship" speed="13.89" length="4.82" shape="1673.09,407.98 1671.69,407.49 1671.08,406.80 1671.27,405.90 1672.26,404.79"/>
    </edge>
    <edge id=":4597615129_3" function="internal">
        <lane id=":4597615129_3_0" index="0" disallow="tram rail_urban rail rail_electric ship" speed="18.05" length="5.35" shape="1668.81,402.11 1669.02,403.62 1669.66,404.57 1670.74,404.96 1672.26,404.79"/>
    </edge>
    <edge id=":4597615129_4" function="internal">
        <lane id=":4597615129_4_0" index="0" disallow="tram rail_urban rail rail_electric ship" speed="22.22" length="9.73" shape="1668.81,402.11 1668.76,411.84"/>
    </edge>
    <edge id=":4597615129_5" function="internal">
        <lane id=":4597615129_5_0" index="0" disallow="tram rail_urban rail rail_electric ship" speed="22.22" length="2.41" shape="1668.81,402.11 1667.98,403.34 1667.15,403.75"/>
    </edge>
    <edge id=":4597615129_9" function="internal">