<?xml version="1.0" encoding="UTF-8"?>

<!-- generated on Sat Apr 18 12:07:44 2020 by SUMO duarouter Version 0.32.0
<?xml version="1.0" encoding="UTF-8"?>

<configuration xmlns:xsi="http://www.w3.org/2001/XMLSchema-instance" xsi:noNamespaceSchemaLocation="http://sumo.dlr.de/xsd/duarouterConfiguration.xsd">

    <input>
        <net-file value="chakeri.net.xml"/>
        <route-files value="trips.trips.xml"/>
    </input>

    <output>
        <output-file value="chakeri.rou.xml"/>
        <alternatives-output value="chakeri.rou.alt.xml"/>
    </output>

    <processing>
        <ignore-errors value="true"/>
    </processing>

    <time>
        <begin value="0"/>
        <end value="50.0"/>
    </time>

    <report>
        <no-warnings value="true"/>
        <no-step-log value="true"/>
    </report>

</configuration>
-->

<routes xmlns:xsi="http://www.w3.org/2001/XMLSchema-instance" xsi:noNamespaceSchemaLocation="http://sumo.dlr.de/xsd/routes_file.xsd">
    <vehicle id="0" depart="0.00">
        <route edges="44740884#2 -22833866#1 -44949766#5 -44949766#4 -44949766#3 -44949766#2 -44949766#1 -44949766#0 -44739187#11 -44739187#10 -44739187#9 -44739187#8 -44739187#7 -44739187#6 -44739187#5 -44739187#4 -44739187#3 -44739187#2 -44739187#1 -44739187#0 -44741024#14 -44741024#13 -44741025#2 -671169021 671169021"/>
    </vehicle>
    <vehicle id="1" depart="1.00">
        <route edges="671212208#1 -671212204 -671212211#0 43962877#2 43962877#3 43962877#4 702648571#5 702648571#6 702648571#7 702648571#8 702648571#9 43963628 148475968#0 148475968#1 148475971#0 148475971#1 148475971#2 148475971#3 148475971#4 148475971#5 148475971#6 148475971#7 22833907#0 22833907#1 22833907#2 22833907#3 22833907#4 44136836#0 44136836#1 44136836#2 44136836#3 46114245#0 46114245#1 46114245#2 46114246#0 46114247#0 -46114252#0 46114246#2 46114246#3 46114246#4"/>
    </vehicle>
    <vehicle id="2" depart="2.00">
        <route edges="-44741053#1 44741052 44739187#9 44739187#10 44739187#11 44949768#0 44949768#1 44949768#2 668391810#0 668391810#1 668391810#2 -668798655#2 -671421329 22833866#5 22833866#6 -148475968#1 -148475968#0 -43963628 -702648571#9 -702648571#8 -702648571#7 -702648571#6 -702648571#5 -702648571#4 -702648571#3 -702648571#2 -702648571#1 702648571#1"/>
    </vehicle>
    <vehicle id="3" depart="3.00">
        <route edges="-672782432 -672782433#0 672782434#1 672782435#2 30905243#2 30905243#3 30905243#4 30905243#5 44136224#0 702613007 43961457#0 43961457#1 43961457#2 43961457#3 43961457#4 43961457#5 -414477326#1 414477326#1"/>
    </vehicle>
    <vehicle id="4" depart="4.00">
        <route edges="-46114247#1 -46114247#0 -46114246#0 -46114245#2 -46114245#1 -46114245#0 44136836#4 44136825 44136826#0 -754711641#1 754711642"/>
    </vehicle>
    <vehicle id="5" depart="5.00">
        <route edges="668391810#0 -668391810#0 -44949768#2 -44949768#1 -44949768#0 -44739187#11 -44739187#10 -44739187#9 -44739187#8 -44739187#7 -44739187#6 -44739187#5 -44739187#4 -44739187#3 -44739187#2 44739187#2"/>
    </vehicle>
    <vehicle id="6" depart="6.00">
        <route edges="46114891#2 -46114891#2 -46114891#1 -46114891#0 -148475971#6 -148475971#5 -148475971#4 -148475971#3 -148475971#2 -148475971#1 -148475971#0 -148475968#1 -506689499#6 -506689499#5 -506689499#4 -506689499#3 -506689499#2 -506689499#1 -506689499#0 43961457#4 43961457#5"/>
    </vehicle>
    <vehicle id="7" depart="7.00">
        <route edges="44739189#3 44739189#4 44739189#5 44739189#6 -44739187#4 -668798654#2 -668798654#1 668798654#1"/>
    </vehicle>
    <vehicle id="8" depart="8.00">
        <route edges="-668391810#3 -668798655#2 -671421329 22833866#5 22833866#6 148475971#0 148475971#1 148475971#2 148475971#3 148475971#4 148475971#5 148475971#6 46114891#0 46114891#1 46114891#2 46114891#3 46114891#4 46114891#5 46114892#0 46114892#1 46114892#2 46114892#3 -46114892#3"/>
    </vehicle>
    <vehicle id="9" depart="9.00">
        <route edges="30907741 -22833907#5 44136836#0 44136836#1 44136836#2 44136836#3 44136836#4 44136825 44136826#0 44136826#1 44136826#2 44136826#3 44136826#4 44136826#5 44136826#6 44136826#7 44136826#8 44136826#9 44136826#10 44136826#11 44136826#12 44739190#0 44739191#0 44739191#1 44739191#2 44739191#3 44739189#1"/>
    </vehicle>
    <vehicle id="10" depart="10.00">
        <route edges="671430687#1 -671430687#1 -671430687#0 -44739193#0 44739154#1 44949766#5 -44949766#5"/>
    </vehicle>
    <vehicle id="11" depart="11.00">
        <route edges="-671195657#2 671195657#2 671195657#3 671195657#4 44739187#1 44739187#2 44739187#3 44739187#4 44739187#5 44739187#6 44739187#7 44739187#8 44739187#9 44739187#10 44739187#11 44949768#0 44949768#1 44949768#2 668391810#0 668391810#1 668391810#2 -668798655#2 -671421329 -22833866#4 671418895#0 671418895#1 671418895#2 -671418902#2 671418902#2"/>
    </vehicle>
    <vehicle id="12" depart="12.00">
        <route edges="-148475971#7 148475971#7 22833907#0 22833907#1 22833907#2 22833907#3 22833907#4 44136836#0 44136836#1 44136836#2 44136836#3 44136836#4 44136825 44136826#0 44136826#1 44741017#0 44741017#1 44741017#2 44741017#3 44741017#4 44741017#5 44741017#6 -44741017#6"/>
    </vehicle>
    <vehicle id="13" depart="13.00">
        <route edges="668830086 -668830085#0 -44949768#1 -44949768#0 -44739187#11 -44739187#10 -44739187#9 -44739187#8 -44739187#7 -44739187#6 -44739187#5 -44739187#4 -44739187#3 -44739187#2 -44739187#1 -44739187#0 -44741024#14 -44741024#13 -44741024#12 671169030#0 671169030#1 671169023 671169027#1 -671169027#1"/>
    </vehicle>
    <vehicle id="14" depart="14.00">
        <route edges="668411505#1 44734706#2 44734706#3 44734706#4 44734706#5 44136836#3 44136836#4 44136825 44136826#0 -754711641#1 -754711641#0 671753254#5 -671753254#1 -671753254#0 671753251#0 671753251#1 -44739217#4 668798656#0"/>
    </vehicle>
    <vehicle id="16" depart="16.00">
        <route edges="-44739187#4 -44739187#3 -44739187#2 -44739187#1 -44739187#0 -44136826#4 -44136826#3 -44136826#2 -44136826#1 -754711641#1 -754711641#0 671753254#5"/>
    </vehicle>
    <vehicle id="17" depart="17.00">
        <route edges="414477305#3 414477336#4 414477326#1 -43961457#5 -43961457#4 -43961457#3 -43961457#2 -43961457#1 -43961457#0 702613006 -35824949#7 -35824949#6 -35824949#5 -35824949#4 -35824949#3 -35824949#2 -35824949#1 -35824949#0 22833907#0 22833907#1 22833907#2 22833907#3 22833907#4 44136836#0 44136836#1 44136836#2 44136836#3 44136836#4 44136825 44136826#0 44136826#1 44136826#2 44136826#3 44136826#4 -44741024#14 -44741024#13 -44741024#12 -44741024#11 -44741024#10 -44741024#9 -44741024#8 671169019#0 671169029#4"/>
    </vehicle>
    <vehicle id="18" depart="18.00">
        <route edges="-44949768#1 -44949768#0 -44739187#11 -44739187#10 -44739187#9 -44739187#8 -44739187#7 -44739187#6 -44739187#5 -44739187#4 -44739187#3 -44739187#2 -44739187#1 -44739187#0 -44741024#14 -44741024#13 -44741024#12 -44741024#11 -44741024#10 -44741024#9 -44741024#8 -44741024#7 -44741024#6 -44741024#5 -44741024#4 -44741024#3 -44741024#2 44741021#0 44741021#1 -44739186#1 699858824 -44741028 -44741009#5 -44741009#4 -44741009#3 -44741009#2 -44741009#1 -672207099#1 -672207099#0"/>
    </vehicle>
    <vehicle id="19" depart="19.00">
        <route edges="-44739154#3 -44739154#2 -44949766#4 -44949766#3 -44949766#2 -44949766#1 -44949766#0 -44739187#11 -44739187#10 -44739187#9 -44739187#8 -44739187#7 -44739187#6 -44739187#5 -44739187#4 -44739187#3 -44739187#2 -44739187#1 -44739187#0 -44741024#14 -44741024#13 -44741024#12 44741024#12"/>
    </vehicle>
    <vehicle id="20" depart="20.00">
        <route edges="44741044#1 -44741007#6 -44741007#5 -44741007#4 -44741007#3 -44741007#2 -44741007#1 -44741007#0 -44136826#9 -44136826#8 -44136826#7 -44136826#6 -44136826#5 -44741024#14 -44741024#13 -44741024#12 -44741024#11 -44741024#10"/>
    </vehicle>
    <vehicle id="21" depart="21.00">
        <route edges="672194146#0 -672194146#0 -30905243#3 -30905243#2 -30905243#1 -30905243#0 148475971#0 148475971#1 148475971#2 148475971#3 148475971#4 148475971#5 148475971#6 46114891#0 46114891#1 46114891#2 46114891#3 46114891#4 46114891#5 46114892#0 46114892#1 46114892#2 46114892#3 -46114893#5"/>
    </vehicle>
    <vehicle id="22" depart="22.00">
        <route edges="-34865320#3 -44136224#2 -44136224#1 -44136224#0 -30905243#5 -30905243#4 -30905243#3 -30905243#2 -30905243#1 -30905243#0 148475971#0 148475971#1 148475971#2 148475971#3 148475971#4 148475971#5 148475971#6 46114891#0 46114891#1 46114891#2 46114904#0 46114904#1 -46114904#1"/>
    </vehicle>
    <vehicle id="23" depart="23.00">
        <route edges="-671418902#3 -671418895#2 -671418895#1 -671418895#0 22833866#4 22833866#5 22833866#6 -148475968#1 -506689499#6 -506689499#5 -506689499#4 -506689499#3 -506689499#2 -506689499#1 -506689499#0 43961457#4 43961457#5 43961457#6 43961459#1 -332926430#9 -332926430#8 -332926430#7 -332926430#6 -332926430#5 332926430#5"/>
    </vehicle>
    <vehicle id="24" depart="24.00">
        <route edges="-44741030#1 -671418002#1 -671418002#0 -671418005#0 44739186#5 -44741032 44741024#6 44741024#7 44741024#8 44741024#9 44741024#10 44741024#11 44741024#12 44741024#13 44741024#14 -44136826#4 -44136826#3 -44136826#2 -44136826#1 -44136826#0 -44136825 -44136836#4 -44136836#3 -44136836#2 -44136836#1 -44136836#0 22833907#5 22833907#6 22833907#7 -44734709#2 -44734709#1"/>
    </vehicle>
    <vehicle id="25" depart="25.00">
        <route edges="-668602052#5 668602052#5 -668602052#2 -668602052#1 -668602052#0 -148475971#0 -22833866#6 -22833866#5 -22833866#4 -22833866#3 -22833866#2 -22833866#1 -44949766#5 -44949766#4 -44949766#3 -671430687#3 -671430687#2"/>
    </vehicle>
    <vehicle id="26" depart="26.00">
        <route edges="43961456#0 43961456#1 35824972#7 35824972#8 35824972#9 35824972#10 148475971#2 -702616798 668797299#1 -668797299#1"/>
    </vehicle>
    <vehicle id="27" depart="27.00">
        <route edges="-44739219#0 44739219#0 44739187#7 44739187#8 44739187#9 44739187#10 44739187#11 -44739137#6 -44739137#5 -44739137#4 -44739137#3 -44739137#2"/>
    </vehicle>
    <vehicle id="28" depart="28.00">
        <route edges="-35824973#3 -35824973#2 -35824973#1 -35824973#0 -35824949#1 -35824949#0 22833907#0 22833907#1 22833907#2 22833907#3 22833907#4 44136836#0 44136836#1 44136836#2 44136836#3 44136836#4 44136825 44136826#0 44136826#1 44136826#2 44136826#3 44136826#4 44739187#0 44739187#1 44739187#2 44739187#3 44739187#4 -44739189#6 -44739186#17"/>
    </vehicle>
    <vehicle id="29" depart="29.00">
        <route edges="671418902#3 671418894 -671418895#0 22833866#4 671421329 668798655#2 -668391810#2 -668391810#1 -668391810#0 -44949768#2 -44949768#1 -44949768#0 -44739187#11 -44739187#10 -44739187#9 -44739187#8 -44739187#7 -44739187#6 -44739187#5 -44739187#4 -668798654#2 -668798654#1 -754711645 -754711636#2 -754711636#1 -754711639#2 -754711639#1 754711635#1"/>
    </vehicle>
    <vehicle id="30" depart="30.00">
        <route edges="671169027#6 -671169027#6 671169022 -44741025#0 -44741017#0 -44136826#1 -44136826#0 -44136825 -44136836#4 -44136836#3 -44136836#2 -44136836#1 -44136836#0 -22833907#4 -22833907#3 -22833907#2 -22833907#1 -22833907#0 -148475971#7 -148475971#6 -148475971#5 -148475971#4 -148475971#3 -148475971#2 -148475971#1 668602052#0 668602052#1 -668797299#2"/>
    </vehicle>
    <vehicle id="31" depart="31.00">
        <route edges="-671411332 671411332 -44739193#8 44739189#2 44739189#3 44739189#4 44739189#5 44739189#6 44739187#5 44739187#6 44739187#7 44739187#8 44739187#9 44739187#10 44739187#11 44949768#0 44949768#1 44949768#2 44949768#3 44739137#2"/>
    </vehicle>
    <vehicle id="32" depart="32.00">
        <route edges="46115094#5 -671167425 148475971#4 148475971#5 148475971#6 148475971#7 22833907#0 22833907#1 22833907#2 22833907#3 22833907#4 44136836#0 44136836#1 44136836#2 44136836#3 44136836#4 44136825 44136826#0 -754711641#1 -754711641#0 671753254#5 671753254#2 -754711637#1 754711637#1"/>
    </vehicle>
    <vehicle id="33" depart="33.00">
        <route edges="-668798654#1 668798654#1 668798654#2 44739187#4 44739187#5 44739187#6 44739187#7 44739187#8 44739187#9 44739187#10 44739187#11 44949768#0 44949768#1 44949768#2 668391810#0 668391810#1 668391810#2 -668798655#2 -671421329 -22833866#4 671418895#0 671418895#1 671418895#2 -671418902#2 -671418902#1"/>
    </vehicle>
    <vehicle id="34" depart="34.00">
        <route edges="-672782437#0 672782440#1 672782436#0 -672782433#1 -672782433#0 672782434#1 672782435#2 -30905243#1 -30905243#0 -22833866#6 -22833866#5 -22833866#4 -22833866#3 -22833866#2 -22833866#1 -44949766#5 -44949766#4 -44949766#3 -44949766#2 -44949766#1 -44739186#23 -44739186#22"/>
    </vehicle>
    <vehicle id="35" depart="35.00">
        <route edges="46114246#0 -46114246#0 -46114245#2 -46114245#1 -46114245#0 44136836#4 44136825 44136826#0 44136826#1 44136826#2 44136826#3 44136826#4 44136826#5 44136826#6 44136826#7 44136826#8 44136826#9 44136826#10 44136826#11 44136826#12 44739190#0 44739191#0 -44739193#10 -44739193#9 -44739193#8 -44739193#7 -44739193#6 44739194#1"/>
    </vehicle>
    <vehicle id="36" depart="36.00">
        <route edges="-671169028#2 671169028#2 671169028#3 -671169029#2 -671169020#0 44741024#10 44741024#11 44741024#12 44741024#13 44741024#14 44739187#0 44739187#1 44739187#2 44739187#3 44739187#4 44739187#5 44739187#6 44739187#7 44739187#8 44739187#9 44739187#10 44739187#11"/>
    </vehicle>
    <vehicle id="37" depart="37.00">
        <route edges="44741024#13 44741024#14 -44136826#4 -44136826#3 -44136826#2 -44136826#1 -44136826#0 -44136825 -44136836#4 -44136836#3 -44136836#2 -44136836#1 -44136836#0 -22833907#4 -22833907#3 -22833907#2 -22833907#1 -22833907#0 35824949#0 35824949#1 35824949#2 35824949#3 35824949#4 35824949#5 35824949#6 35824949#7 44136224#0 702613007 43961457#0 43961457#1 43961457#2 43961457#3 43961457#4 43961457#5 -414477326#1"/>
    </vehicle>
    <vehicle id="38" depart="38.00">
        <route edges="-672782440#2 -672782440#1 -672782440#0 35824972#9 -43961452#8 -43961452#7 -43961452#6 -43961452#5 -43961452#4 -43961452#3 -43961452#2 -43961452#1 -43961452#0 -35824973#3 -35824973#2 -35824973#1 -35824973#0 -35824949#1"/>
    </vehicle>
    <vehicle id="39" depart="39.00">
        <route edges="44734705#1 -44734705#1 -44734705#0 44136836#2 44136836#3 44136836#4 44136825 44136826#0 44136826#1 44136826#2 44136826#3 44136826#4 -44741024#14 -44741024#13 -44741024#12 -44741024#11 -44741024#10 -44741024#9 -44741024#8 -44741024#7 -44741024#6 -44741024#5 -44741024#4 -44741024#3 -44741024#2 -44741024#1 44741023#3 44741023#4 -44741023#4"/>
    </vehicle>
    <vehicle id="40" depart="40.00">
        <route edges="-30907734#3 -30907734#2 -30907734#1 -22833907#6 -22833907#5 -22833907#4 -22833907#3 -22833907#2 -22833907#1 -22833907#0 -148475971#7 -148475971#6 -148475971#5 -148475971#4 -148475971#3 -148475971#2 -148475971#1 -148475971#0 -22833866#6 -22833866#5 -22833866#4 671418895#0 -671418894 671418902#4 671418902#5 671418902#6 671418902#7 671418902#8"/>
    </vehicle>
    <vehicle id="41" depart="41.00">
        <route edges="-46114892#1 -46114892#0 -46114891#5 -46114891#4 -46114891#3 -46114891#2 -46114891#1 -46114891#0 -148475971#6 -148475971#5 -148475971#4 -148475971#3 -148475971#2 -148475971#1 -148475971#0 -148475968#1 -148475968#0 -43963628 -702648571#9 -702648571#8 -702648571#7 -702648571#6 -702648571#5 43962877#5 43962877#6 43962880 -43962880"/>
    </vehicle>
    <vehicle id="42" depart="42.00">
        <route edges="-46114908#4 46114908#4 46114908#5 668411505#0 668411505#1 44734706#2 44734706#3 44734706#4 44734706#5 44136836#3 44136836#4 44136825 44136826#0 44136826#1 44136826#2 44136826#3 44136826#4 44739187#0 44739187#1 44739187#2 44739187#3 44739187#4 44739187#5 44739187#6 44739187#7 671414840#0 671414840#1"/>
    </vehicle>
    <vehicle id="43" depart="43.00">
        <route edges="44741045#1 -44741007#8 -44739219#3 -44739219#2 -44739219#1 -44739187#6 -44739187#5 -44739187#4 -44739187#3 -44739187#2 -44739187#1 -44739187#0 -44741024#14 -44741024#13 -44741024#12 -44741024#11 -44741024#10 671169020#0 671169029#2 -671169028#3 -671169028#2 -671169028#1 -671169028#0 -670661865#2 -670661864#0 -44741017#4"/>
    </vehicle>
    <vehicle id="44" depart="44.00">
        <route edges="43962877#2 43962877#3 43962877#4 702648571#5 702648571#6 702648571#7 702648571#8 702648571#9 43963628 148475968#0 148475968#1 -22833866#6 -22833866#5 -22833866#4 -22833866#3 -22833866#2 -22833866#1 -44949766#5 -44739154#1 44739193#0 44739193#1 44739193#2 44739193#3 44739193#4 44739193#5 44739193#6 44739193#7 44739193#8 44739193#9 44739193#10 44739191#1"/>
    </vehicle>
    <vehicle id="45" depart="45.00">
        <route edges="-671212209#0 671212210#1 671212210#2 671212207 43962877#1 43962877#2 43962877#3 43962877#4 702648571#5 702648571#6 702648571#7 702648571#8 702648571#9 43963628 148475968#0 148475968#1 -22833866#6 -22833866#5 671421329 668798655#2 -668391810#2 -668391810#1 -668391810#0 -44949768#2 -44949768#1 -44949768#0 -44739187#11 -44739187#10 -44739187#9 -44739187#8 -44739187#7 -44739187#6 -44739187#5 -44739187#4 -668798654#2 -668798654#1"/>
    </vehicle>
    <vehicle id="47" depart="47.00">
        <route edges="-47755215 -47755213#0 -47755212#0 -44949766#3 -44949766#2 44739188#0 44739188#1 -44739189#3 -44739190#2 -44739190#1"/>
    </vehicle>
    <vehicle id="48" depart="48.00">
        <route edges="672194146#0 -672194146#0 -30905243#3 -30905243#2 -30905243#1 -30905243#0 -148475968#1 -148475968#0 -43963628 -702648571#9 -702648571#8 -702648571#7 -702648571#6 -702648571#5 -43962877#4 -43962877#3 -43962877#2 -43962877#1 -671212207 671212210#3 671212210#4"/>
    </vehicle>
    <vehicle id="49" depart="49.00">
        <route edges="-44739137#5 -44739137#4 -44739137#3 -44739137#2 -44739137#1 -44739137#0 668798655#1 -671421329 22833866#5 22833866#6 148475971#0 148475971#1 148475971#2 148475971#3 671167425 -46115100 -43961452#5 -43961452#4 -43961452#3 -43961452#2 -43961452#1 -43961452#0"/>
    </vehicle>
</routes>
