<?xml version="1.0" encoding="UTF-8"?>

<!-- generated on Sat Apr 18 13:19:17 2020 by SUMO duarouter Version 0.32.0
<?xml version="1.0" encoding="UTF-8"?>

<configuration xmlns:xsi="http://www.w3.org/2001/XMLSchema-instance" xsi:noNamespaceSchemaLocation="http://sumo.dlr.de/xsd/duarouterConfiguration.xsd">

    <input>
        <net-file value="chakeri.net.xml"/>
        <route-files value="trips.trips.xml"/>
    </input>

    <output>
        <output-file value="chakeri.rou.xml"/>
        <alternatives-output value="chakeri.rou.alt.xml"/>
    </output>

    <processing>
        <ignore-errors value="true"/>
    </processing>

    <time>
        <begin value="0.0"/>
        <end value="600.0"/>
    </time>

    <report>
        <no-warnings value="true"/>
        <no-step-log value="true"/>
    </report>

</configuration>
-->

<routes xmlns:xsi="http://www.w3.org/2001/XMLSchema-instance" xsi:noNamespaceSchemaLocation="http://sumo.dlr.de/xsd/routes_file.xsd">
    <vehicle id="0" depart="0.00">
        <route edges="-702689208 44950739#1"/>
    </vehicle>
    <vehicle id="2" depart="2.00">
        <route edges="702628873#1 -702628873#1"/>
    </vehicle>
    <vehicle id="4" depart="4.00">
        <route edges="702628873#0 702628873#1"/>
    </vehicle>
    <vehicle id="5" depart="5.00">
        <route edges="702628877 -702628877"/>
    </vehicle>
    <vehicle id="8" depart="8.00">
        <route edges="-44950739#1 44950739#1"/>
    </vehicle>
    <vehicle id="9" depart="9.00">
        <route edges="702628877 702628873#2"/>
    </vehicle>
    <vehicle id="10" depart="10.00">
        <route edges="-44950739#1 -44950739#0"/>
    </vehicle>
    <vehicle id="11" depart="11.00">
        <route edges="702628873#0 702628873#1"/>
    </vehicle>
    <vehicle id="12" depart="12.00">
        <route edges="702628873#1 -702628873#1 702628877"/>
    </vehicle>
    <vehicle id="13" depart="13.00">
        <route edges="44950739#0 44950739#1"/>
    </vehicle>
    <vehicle id="18" depart="18.00">
        <route edges="702628873#0 702628873#1"/>
    </vehicle>
    <vehicle id="19" depart="19.00">
        <route edges="702628873#0 -702628873#0"/>
    </vehicle>
    <vehicle id="23" depart="23.00">
        <route edges="702628873#1 -702628873#1 -702628873#0"/>
    </vehicle>
    <vehicle id="27" depart="27.00">
        <route edges="44950739#0 702689208"/>
    </vehicle>
    <vehicle id="28" depart="28.00">
        <route edges="702628873#1"/>
    </vehicle>
    <vehicle id="30" depart="30.00">
        <route edges="702628873#0 702628873#1"/>
    </vehicle>
    <vehicle id="31" depart="31.00">
        <route edges="702628877 -702628877"/>
    </vehicle>
    <vehicle id="32" depart="32.00">
        <route edges="-702628877 702628877 -702628873#1"/>
    </vehicle>
    <vehicle id="35" depart="35.00">
        <route edges="-702628877 702628877 702628873#2"/>
    </vehicle>
    <vehicle id="36" depart="36.00">
        <route edges="702628873#0 702628873#1"/>
    </vehicle>
    <vehicle id="37" depart="37.00">
        <route edges="-702628877 702628873#1"/>
    </vehicle>
    <vehicle id="38" depart="38.00">
        <route edges="-702689208 -44950739#0"/>
    </vehicle>
    <vehicle id="39" depart="39.00">
        <route edges="-702628877 702628873#1"/>
    </vehicle>
    <vehicle id="42" depart="42.00">
        <route edges="-702689208 44950739#1"/>
    </vehicle>
    <vehicle id="44" depart="44.00">
        <route edges="-702628877 702628877"/>
    </vehicle>
    <vehicle id="45" depart="45.00">
        <route edges="-702628873#2 -702628877"/>
    </vehicle>
    <vehicle id="46" depart="46.00">
        <route edges="-702689208 44950739#1"/>
    </vehicle>
    <vehicle id="48" depart="48.00">
        <route edges="702628877 -702628873#1 702628873#1"/>
    </vehicle>
    <vehicle id="49" depart="49.00">
        <route edges="702628877 -702628873#1"/>
    </vehicle>
    <vehicle id="50" depart="50.00">
        <route edges="-702628877"/>
    </vehicle>
    <vehicle id="51" depart="51.00">
        <route edges="44950739#0 44950739#1"/>
    </vehicle>
    <vehicle id="54" depart="54.00">
        <route edges="-702628873#1 702628877 702628873#2"/>
    </vehicle>
    <vehicle id="56" depart="56.00">
        <route edges="702628877 -702628873#1"/>
    </vehicle>
    <vehicle id="57" depart="57.00">
        <route edges="-702628877 702628877 702628873#2"/>
    </vehicle>
    <vehicle id="58" depart="58.00">
        <route edges="702628877 -702628873#1 -702628873#0"/>
    </vehicle>
    <vehicle id="61" depart="61.00">
        <route edges="44950739#0 702689208"/>
    </vehicle>
    <vehicle id="62" depart="62.00">
        <route edges="-702689208 702689208"/>
    </vehicle>
    <vehicle id="63" depart="63.00">
        <route edges="702628873#0 702628877 702628873#2"/>
    </vehicle>
    <vehicle id="64" depart="64.00">
        <route edges="702628873#1 702628873#2"/>
    </vehicle>
    <vehicle id="67" depart="67.00">
        <route edges="44950739#0 44950739#1"/>
    </vehicle>
    <vehicle id="69" depart="69.00">
        <route edges="702628873#0 702628877 -702628877"/>
    </vehicle>
    <vehicle id="70" depart="70.00">
        <route edges="-702628873#2 -702628873#1 -702628873#0"/>
    </vehicle>
    <vehicle id="71" depart="71.00">
        <route edges="-702628873#2 -702628877"/>
    </vehicle>
    <vehicle id="72" depart="72.00">
        <route edges="-702689208 44950739#1"/>
    </vehicle>
    <vehicle id="74" depart="74.00">
        <route edges="-702689208 702689208"/>
    </vehicle>
    <vehicle id="75" depart="75.00">
        <route edges="44950739#0 44950739#1"/>
    </vehicle>
    <vehicle id="77" depart="77.00">
        <route edges="702628873#1"/>
    </vehicle>
    <vehicle id="79" depart="79.00">
        <route edges="-702689208 -44950739#0"/>
    </vehicle>
    <vehicle id="80" depart="80.00">
        <route edges="-44950739#1 44950739#1"/>
    </vehicle>
    <vehicle id="82" depart="82.00">
        <route edges="-44950739#1 -44950739#0"/>
    </vehicle>
    <vehicle id="85" depart="85.00">
        <route edges="-702628877 702628877 702628873#2"/>
    </vehicle>
    <vehicle id="86" depart="86.00">
        <route edges="702628873#0 -702628873#0"/>
    </vehicle>
    <vehicle id="88" depart="88.00">
        <route edges="702628877 -702628873#1 702628873#1"/>
    </vehicle>
    <vehicle id="89" depart="89.00">
        <route edges="702628873#0 702628873#1"/>
    </vehicle>
    <vehicle id="91" depart="91.00">
        <route edges="702628877 -702628873#1 -702628873#0"/>
    </vehicle>
    <vehicle id="93" depart="93.00">
        <route edges="44950739#0 702689208"/>
    </vehicle>
    <vehicle id="97" depart="97.00">
        <route edges="702628873#0 702628877"/>
    </vehicle>
    <vehicle id="99" depart="99.00">
        <route edges="702628877 -702628873#1"/>
    </vehicle>
    <vehicle id="100" depart="100.00">
        <route edges="-702628873#1"/>
    </vehicle>
    <vehicle id="102" depart="102.00">
        <route edges="702628873#1 702628873#2"/>
    </vehicle>
    <vehicle id="103" depart="103.00">
        <route edges="-44950739#1 44950739#1"/>
    </vehicle>
    <vehicle id="107" depart="107.00">
        <route edges="-702628873#2 -702628873#1 702628873#1"/>
    </vehicle>
    <vehicle id="108" depart="108.00">
        <route edges="702628873#0 702628877 -702628873#1"/>
    </vehicle>
    <vehicle id="109" depart="109.00">
        <route edges="-702689208 702689208"/>
    </vehicle>
    <vehicle id="115" depart="115.00">
        <route edges="702628877 -702628873#1"/>
    </vehicle>
    <vehicle id="117" depart="117.00">
        <route edges="44950739#0 702689208"/>
    </vehicle>
    <vehicle id="119" depart="119.00">
        <route edges="-702689208 44950739#1"/>
    </vehicle>
    <vehicle id="120" depart="120.00">
        <route edges="702628877 -702628877"/>
    </vehicle>
    <vehicle id="122" depart="122.00">
        <route edges="-702689208 44950739#1"/>
    </vehicle>
    <vehicle id="126" depart="126.00">
        <route edges="702628877 702628873#2"/>
    </vehicle>
    <vehicle id="127" depart="127.00">
        <route edges="-702689208 702689208"/>
    </vehicle>
    <vehicle id="128" depart="128.00">
        <route edges="702628877"/>
    </vehicle>
    <vehicle id="130" depart="130.00">
        <route edges="-702628877 702628877"/>
    </vehicle>
    <vehicle id="131" depart="131.00">
        <route edges="-702689208 702689208"/>
    </vehicle>
    <vehicle id="133" depart="133.00">
        <route edges="702628873#0 702628877 -702628877"/>
    </vehicle>
    <vehicle id="134" depart="134.00">
        <route edges="702628873#0 702628877 -702628877"/>
    </vehicle>
    <vehicle id="135" depart="135.00">
        <route edges="702628877"/>
    </vehicle>
    <vehicle id="136" depart="136.00">
        <route edges="-702628873#1 -702628873#0"/>
    </vehicle>
    <vehicle id="137" depart="137.00">
        <route edges="-702628877"/>
    </vehicle>
    <vehicle id="138" depart="138.00">
        <route edges="-702689208 702689208"/>
    </vehicle>
    <vehicle id="139" depart="139.00">
        <route edges="44950739#0 702689208"/>
    </vehicle>
    <vehicle id="143" depart="143.00">
        <route edges="44950739#0 702689208"/>
    </vehicle>
    <vehicle id="145" depart="145.00">
        <route edges="44950739#0 702689208"/>
    </vehicle>
    <vehicle id="146" depart="146.00">
        <route edges="702628877 -702628873#1 -702628873#0"/>
    </vehicle>
    <vehicle id="147" depart="147.00">
        <route edges="-702628877 -702628873#0"/>
    </vehicle>
    <vehicle id="148" depart="148.00">
        <route edges="702628877 -702628873#1"/>
    </vehicle>
    <vehicle id="149" depart="149.00">
        <route edges="-702628877 702628873#1"/>
    </vehicle>
    <vehicle id="151" depart="151.00">
        <route edges="702628873#1 702628873#2"/>
    </vehicle>
    <vehicle id="152" depart="152.00">
        <route edges="-702628873#1 702628877 -702628877"/>
    </vehicle>
    <vehicle id="153" depart="153.00">
        <route edges="702628877"/>
    </vehicle>
    <vehicle id="159" depart="159.00">
        <route edges="702628877 -702628877"/>
    </vehicle>
    <vehicle id="163" depart="163.00">
        <route edges="-702689208 -44950739#0"/>
    </vehicle>
    <vehicle id="164" depart="164.00">
        <route edges="44950739#0 -44950739#0"/>
    </vehicle>
    <vehicle id="167" depart="167.00">
        <route edges="702628873#1 -702628877"/>
    </vehicle>
    <vehicle id="168" depart="168.00">
        <route edges="-44950739#1 -44950739#0"/>
    </vehicle>
    <vehicle id="170" depart="170.00">
        <route edges="702628877"/>
    </vehicle>
    <vehicle id="171" depart="171.00">
        <route edges="-702628873#2 -702628873#1 702628873#1"/>
    </vehicle>
    <vehicle id="175" depart="175.00">
        <route edges="702628877 -702628877"/>
    </vehicle>
    <vehicle id="178" depart="178.00">
        <route edges="-702628873#2 -702628873#1 -702628873#0"/>
    </vehicle>
    <vehicle id="183" depart="183.00">
        <route edges="-702628873#2 -702628873#1 702628877"/>
    </vehicle>
    <vehicle id="184" depart="184.00">
        <route edges="-702628877 -702628873#0"/>
    </vehicle>
    <vehicle id="187" depart="187.00">
        <route edges="-702628877 702628877"/>
    </vehicle>
    <vehicle id="188" depart="188.00">
        <route edges="702628873#1 -702628873#1"/>
    </vehicle>
    <vehicle id="191" depart="191.00">
        <route edges="-702628877 702628873#1"/>
    </vehicle>
    <vehicle id="193" depart="193.00">
        <route edges="702628873#1 -702628873#1 -702628873#0"/>
    </vehicle>
    <vehicle id="195" depart="195.00">
        <route edges="702628873#0 702628877"/>
    </vehicle>
    <vehicle id="197" depart="197.00">
        <route edges="-44950739#1 -44950739#0"/>
    </vehicle>
    <vehicle id="199" depart="199.00">
        <route edges="702628877 -702628873#1 702628873#1"/>
    </vehicle>
    <vehicle id="200" depart="200.00">
        <route edges="-702628877 702628873#1"/>
    </vehicle>
    <vehicle id="201" depart="201.00">
        <route edges="-702628877 -702628873#0"/>
    </vehicle>
    <vehicle id="202" depart="202.00">
        <route edges="702628873#1 -702628877"/>
    </vehicle>
    <vehicle id="204" depart="204.00">
        <route edges="-702628873#2 -702628873#1 702628873#1"/>
    </vehicle>
    <vehicle id="205" depart="205.00">
        <route edges="-702628873#1 702628877 702628873#2"/>
    </vehicle>
    <vehicle id="208" depart="208.00">
        <route edges="-702628877 702628877"/>
    </vehicle>
    <vehicle id="210" depart="210.00">
        <route edges="-702628873#1 702628877 -702628877"/>
    </vehicle>
    <vehicle id="212" depart="212.00">
        <route edges="-702628873#1"/>
    </vehicle>
    <vehicle id="213" depart="213.00">
        <route edges="-44950739#1 44950739#1"/>
    </vehicle>
    <vehicle id="214" depart="214.00">
        <route edges="44950739#0 702689208"/>
    </vehicle>
    <vehicle id="216" depart="216.00">
        <route edges="-702628873#1 702628877 -702628877"/>
    </vehicle>
    <vehicle id="217" depart="217.00">
        <route edges="702628873#1 702628873#2"/>
    </vehicle>
    <vehicle id="220" depart="220.00">
        <route edges="-702628873#1 -702628873#0"/>
    </vehicle>
    <vehicle id="222" depart="222.00">
        <route edges="-702628873#1"/>
    </vehicle>
    <vehicle id="223" depart="223.00">
        <route edges="702628873#1 702628873#2"/>
    </vehicle>
    <vehicle id="224" depart="224.00">
        <route edges="-702628873#2 702628873#2"/>
    </vehicle>
    <vehicle id="225" depart="225.00">
        <route edges="702628873#1 -702628873#1 -702628873#0"/>
    </vehicle>
    <vehicle id="229" depart="229.00">
        <route edges="702628873#0 -702628873#0"/>
    </vehicle>
    <vehicle id="230" depart="230.00">
        <route edges="702628873#0 -702628873#0"/>
    </vehicle>
    <vehicle id="232" depart="232.00">
        <route edges="702628873#0 -702628873#0"/>
    </vehicle>
    <vehicle id="234" depart="234.00">
        <route edges="44950739#0 702689208"/>
    </vehicle>
    <vehicle id="235" depart="235.00">
        <route edges="-702628873#2 -702628877"/>
    </vehicle>
    <vehicle id="237" depart="237.00">
        <route edges="-702689208 -44950739#0"/>
    </vehicle>
    <vehicle id="240" depart="240.00">
        <route edges="-702628873#2 -702628873#1"/>
    </vehicle>
    <vehicle id="241" depart="241.00">
        <route edges="702628873#1 -702628873#1 702628877"/>
    </vehicle>
    <vehicle id="242" depart="242.00">
        <route edges="702628877 -702628877"/>
    </vehicle>
    <vehicle id="247" depart="247.00">
        <route edges="702628873#0 -702628873#0"/>
    </vehicle>
    <vehicle id="248" depart="248.00">
        <route edges="44950739#0 702689208"/>
    </vehicle>
    <vehicle id="249" depart="249.00">
        <route edges="-702628877 -702628873#0"/>
    </vehicle>
    <vehicle id="251" depart="251.00">
        <route edges="702628873#1"/>
    </vehicle>
    <vehicle id="252" depart="252.00">
        <route edges="44950739#0 44950739#1"/>
    </vehicle>
    <vehicle id="255" depart="255.00">
        <route edges="-702628873#1 702628873#1"/>
    </vehicle>
    <vehicle id="256" depart="256.00">
        <route edges="702628873#1 -702628873#1"/>
    </vehicle>
    <vehicle id="257" depart="257.00">
        <route edges="702628873#0 -702628873#0"/>
    </vehicle>
    <vehicle id="258" depart="258.00">
        <route edges="-702689208 44950739#1"/>
    </vehicle>
    <vehicle id="264" depart="264.00">
        <route edges="702628873#1 -702628873#1 702628877"/>
    </vehicle>
    <vehicle id="265" depart="265.00">
        <route edges="-702628873#1 -702628873#0"/>
    </vehicle>
    <vehicle id="267" depart="267.00">
        <route edges="44950739#0 44950739#1"/>
    </vehicle>
    <vehicle id="268" depart="268.00">
        <route edges="-44950739#1 -44950739#0"/>
    </vehicle>
    <vehicle id="271" depart="271.00">
        <route edges="-702628877 702628877 702628873#2"/>
    </vehicle>
    <vehicle id="272" depart="272.00">
        <route edges="-702628873#2 -702628873#1 702628877"/>
    </vehicle>
    <vehicle id="274" depart="274.00">
        <route edges="702628873#1 -702628873#1"/>
    </vehicle>
    <vehicle id="277" depart="277.00">
        <route edges="-702628877 702628873#1"/>
    </vehicle>
    <vehicle id="279" depart="279.00">
        <route edges="702628877 702628873#2"/>
    </vehicle>
    <vehicle id="284" depart="284.00">
        <route edges="44950739#0 702689208"/>
    </vehicle>
    <vehicle id="286" depart="286.00">
        <route edges="-702689208 702689208"/>
    </vehicle>
    <vehicle id="288" depart="288.00">
        <route edges="-702628873#2 702628873#2"/>
    </vehicle>
    <vehicle id="289" depart="289.00">
        <route edges="-44950739#1 44950739#1"/>
    </vehicle>
    <vehicle id="291" depart="291.00">
        <route edges="44950739#0 -44950739#0"/>
    </vehicle>
    <vehicle id="293" depart="293.00">
        <route edges="-702628873#1 702628873#1"/>
    </vehicle>
    <vehicle id="295" depart="295.00">
        <route edges="44950739#0 44950739#1"/>
    </vehicle>
    <vehicle id="296" depart="296.00">
        <route edges="702628877 -702628877"/>
    </vehicle>
    <vehicle id="297" depart="297.00">
        <route edges="44950739#0 -44950739#0"/>
    </vehicle>
    <vehicle id="298" depart="298.00">
        <route edges="702628877 -702628873#1"/>
    </vehicle>
    <vehicle id="299" depart="299.00">
        <route edges="702628877 -702628877"/>
    </vehicle>
    <vehicle id="300" depart="300.00">
        <route edges="-702628877 702628877 702628873#2"/>
    </vehicle>
    <vehicle id="303" depart="303.00">
        <route edges="-702628873#2 -702628873#1"/>
    </vehicle>
    <vehicle id="304" depart="304.00">
        <route edges="-702689208 44950739#1"/>
    </vehicle>
    <vehicle id="305" depart="305.00">
        <route edges="-702628877 702628877"/>
    </vehicle>
    <vehicle id="307" depart="307.00">
        <route edges="702628877 -702628873#1 -702628873#0"/>
    </vehicle>
    <vehicle id="308" depart="308.00">
        <route edges="-702628873#2 -702628877"/>
    </vehicle>
    <vehicle id="309" depart="309.00">
        <route edges="-702689208 702689208"/>
    </vehicle>
    <vehicle id="311" depart="311.00">
        <route edges="702628877 -702628877"/>
    </vehicle>
    <vehicle id="312" depart="312.00">
        <route edges="702628873#0 702628877 -702628877"/>
    </vehicle>
    <vehicle id="313" depart="313.00">
        <route edges="702628877 -702628873#1"/>
    </vehicle>
    <vehicle id="315" depart="315.00">
        <route edges="-44950739#1 702689208"/>
    </vehicle>
    <vehicle id="316" depart="316.00">
        <route edges="-702628873#1 -702628873#0"/>
    </vehicle>
    <vehicle id="317" depart="317.00">
        <route edges="-702628873#1 -702628873#0"/>
    </vehicle>
    <vehicle id="318" depart="318.00">
        <route edges="-702689208 -44950739#0"/>
    </vehicle>
    <vehicle id="322" depart="322.00">
        <route edges="702628877 702628873#2"/>
    </vehicle>
    <vehicle id="323" depart="323.00">
        <route edges="-702628873#1"/>
    </vehicle>
    <vehicle id="326" depart="326.00">
        <route edges="-702628873#1 702628877 702628873#2"/>
    </vehicle>
    <vehicle id="331" depart="331.00">
        <route edges="-702628877 702628877"/>
    </vehicle>
    <vehicle id="332" depart="332.00">
        <route edges="702628877 -702628873#1"/>
    </vehicle>
    <vehicle id="333" depart="333.00">
        <route edges="-702689208 -44950739#0"/>
    </vehicle>
    <vehicle id="336" depart="336.00">
        <route edges="-702628873#2 -702628873#1"/>
    </vehicle>
    <vehicle id="340" depart="340.00">
        <route edges="702628873#0 -702628873#0"/>
    </vehicle>
    <vehicle id="341" depart="341.00">
        <route edges="702628873#0 -702628873#0"/>
    </vehicle>
    <vehicle id="343" depart="343.00">
        <route edges="-702628873#1 702628877"/>
    </vehicle>
    <vehicle id="344" depart="344.00">
        <route edges="-702628877 -702628873#0"/>
    </vehicle>
    <vehicle id="345" depart="345.00">
        <route edges="-702628873#2 -702628873#1 702628877"/>
    </vehicle>
    <vehicle id="346" depart="346.00">
        <route edges="702628873#1 702628873#2"/>
    </vehicle>
    <vehicle id="347" depart="347.00">
        <route edges="-702628877 702628877"/>
    </vehicle>
    <vehicle id="349" depart="349.00">
        <route edges="-702628873#2 -702628873#1 702628877"/>
    </vehicle>
    <vehicle id="350" depart="350.00">
        <route edges="-44950739#1 44950739#1"/>
    </vehicle>
    <vehicle id="351" depart="351.00">
        <route edges="-702628877"/>
    </vehicle>
    <vehicle id="352" depart="352.00">
        <route edges="-702689208 702689208"/>
    </vehicle>
    <vehicle id="353" depart="353.00">
        <route edges="-702628877"/>
    </vehicle>
    <vehicle id="356" depart="356.00">
        <route edges="44950739#0 702689208"/>
    </vehicle>
    <vehicle id="359" depart="359.00">
        <route edges="-702689208 44950739#1"/>
    </vehicle>
    <vehicle id="362" depart="362.00">
        <route edges="-702628873#2 -702628873#1 702628877"/>
    </vehicle>
    <vehicle id="363" depart="363.00">
        <route edges="702628873#0 702628877"/>
    </vehicle>
    <vehicle id="364" depart="364.00">
        <route edges="702628873#0 702628877 702628873#2"/>
    </vehicle>
    <vehicle id="365" depart="365.00">
        <route edges="44950739#0 702689208"/>
    </vehicle>
    <vehicle id="366" depart="366.00">
        <route edges="-702628877 702628877"/>
    </vehicle>
    <vehicle id="367" depart="367.00">
        <route edges="-702628877"/>
    </vehicle>
    <vehicle id="368" depart="368.00">
        <route edges="-702628873#2 -702628877"/>
    </vehicle>
    <vehicle id="369" depart="369.00">
        <route edges="702628873#0 702628877 -702628873#1"/>
    </vehicle>
    <vehicle id="371" depart="371.00">
        <route edges="-702628877 702628877"/>
    </vehicle>
    <vehicle id="372" depart="372.00">
        <route edges="-702628873#2 -702628873#1 702628873#1"/>
    </vehicle>
    <vehicle id="373" depart="373.00">
        <route edges="-702689208 702689208"/>
    </vehicle>
    <vehicle id="374" depart="374.00">
        <route edges="-702689208 -44950739#0"/>
    </vehicle>
    <vehicle id="375" depart="375.00">
        <route edges="-702628873#1 702628873#1"/>
    </vehicle>
    <vehicle id="378" depart="378.00">
        <route edges="-702628877 -702628873#0"/>
    </vehicle>
    <vehicle id="379" depart="379.00">
        <route edges="-702689208 702689208"/>
    </vehicle>
    <vehicle id="380" depart="380.00">
        <route edges="702628877 -702628873#1 -702628873#0"/>
    </vehicle>
    <vehicle id="381" depart="381.00">
        <route edges="-702628877 702628877 -702628873#1"/>
    </vehicle>
    <vehicle id="382" depart="382.00">
        <route edges="702628873#1 702628873#2"/>
    </vehicle>
    <vehicle id="384" depart="384.00">
        <route edges="-702628873#1 -702628873#0"/>
    </vehicle>
    <vehicle id="385" depart="385.00">
        <route edges="702628873#0 702628877 702628873#2"/>
    </vehicle>
    <vehicle id="386" depart="386.00">
        <route edges="-702628873#2 -702628873#1 702628873#1"/>
    </vehicle>
    <vehicle id="388" depart="388.00">
        <route edges="702628877 -702628873#1 702628873#1"/>
    </vehicle>
    <vehicle id="391" depart="391.00">
        <route edges="-702628873#2 -702628877"/>
    </vehicle>
    <vehicle id="394" depart="394.00">
        <route edges="-44950739#1 702689208"/>
    </vehicle>
    <vehicle id="396" depart="396.00">
        <route edges="-702628873#2 -702628873#1 702628877"/>
    </vehicle>
    <vehicle id="397" depart="397.00">
        <route edges="702628873#1 -702628877"/>
    </vehicle>
    <vehicle id="398" depart="398.00">
        <route edges="-702689208 -44950739#0"/>
    </vehicle>
    <vehicle id="399" depart="399.00">
        <route edges="44950739#0 702689208"/>
    </vehicle>
    <vehicle id="404" depart="404.00">
        <route edges="44950739#0 44950739#1"/>
    </vehicle>
    <vehicle id="405" depart="405.00">
        <route edges="-702689208 44950739#1"/>
    </vehicle>
    <vehicle id="406" depart="406.00">
        <route edges="-702628873#1 702628877"/>
    </vehicle>
    <vehicle id="407" depart="407.00">
        <route edges="702628873#0 702628877 -702628873#1"/>
    </vehicle>
    <vehicle id="408" depart="408.00">
        <route edges="702628873#1 -702628873#1 -702628873#0"/>
    </vehicle>
    <vehicle id="409" depart="409.00">
        <route edges="-702628877"/>
    </vehicle>
    <vehicle id="415" depart="415.00">
        <route edges="702628873#0 702628873#1"/>
    </vehicle>
    <vehicle id="416" depart="416.00">
        <route edges="702628877 702628873#2"/>
    </vehicle>
    <vehicle id="419" depart="419.00">
        <route edges="702628873#0 -702628873#0"/>
    </vehicle>
    <vehicle id="421" depart="421.00">
        <route edges="44950739#0 702689208"/>
    </vehicle>
    <vehicle id="423" depart="423.00">
        <route edges="-702628877 702628877 -702628873#1"/>
    </vehicle>
    <vehicle id="424" depart="424.00">
        <route edges="-702628873#2 -702628873#1 702628877"/>
    </vehicle>
    <vehicle id="427" depart="427.00">
        <route edges="702628877 -702628873#1"/>
    </vehicle>
    <vehicle id="428" depart="428.00">
        <route edges="702628873#1 -702628873#1 702628877"/>
    </vehicle>
    <vehicle id="429" depart="429.00">
        <route edges="-702628877"/>
    </vehicle>
    <vehicle id="430" depart="430.00">
        <route edges="-702628873#2 -702628873#1"/>
    </vehicle>
    <vehicle id="434" depart="434.00">
        <route edges="-702628877 702628877 -702628873#1"/>
    </vehicle>
    <vehicle id="438" depart="438.00">
        <route edges="-702689208 44950739#1"/>
    </vehicle>
    <vehicle id="440" depart="440.00">
        <route edges="-702628873#2 702628873#2"/>
    </vehicle>
    <vehicle id="441" depart="441.00">
        <route edges="702628877 -702628873#1 702628873#1"/>
    </vehicle>
    <vehicle id="443" depart="443.00">
        <route edges="-702628877 702628877 702628873#2"/>
    </vehicle>
    <vehicle id="444" depart="444.00">
        <route edges="-702689208 -44950739#0"/>
    </vehicle>
    <vehicle id="445" depart="445.00">
        <route edges="702628873#1 -702628873#1 702628877"/>
    </vehicle>
    <vehicle id="447" depart="447.00">
        <route edges="-702628877 -702628873#0"/>
    </vehicle>
    <vehicle id="448" depart="448.00">
        <route edges="702628877 -702628873#1 -702628873#0"/>
    </vehicle>
    <vehicle id="449" depart="449.00">
        <route edges="702628877 -702628877"/>
    </vehicle>
    <vehicle id="452" depart="452.00">
        <route edges="702628877 702628873#2"/>
    </vehicle>
    <vehicle id="454" depart="454.00">
        <route edges="44950739#0 702689208"/>
    </vehicle>
    <vehicle id="456" depart="456.00">
        <route edges="-702628877"/>
    </vehicle>
    <vehicle id="457" depart="457.00">
        <route edges="-702689208 44950739#1"/>
    </vehicle>
    <vehicle id="458" depart="458.00">
        <route edges="702628877 -702628877"/>
    </vehicle>
    <vehicle id="459" depart="459.00">
        <route edges="702628877"/>
    </vehicle>
    <vehicle id="460" depart="460.00">
        <route edges="702628873#1 -702628873#1 -702628873#0"/>
    </vehicle>
    <vehicle id="461" depart="461.00">
        <route edges="-702628873#1"/>
    </vehicle>
    <vehicle id="462" depart="462.00">
        <route edges="-702628873#2 -702628873#1 702628877"/>
    </vehicle>
    <vehicle id="464" depart="464.00">
        <route edges="702628873#1 -702628873#1 702628877"/>
    </vehicle>
    <vehicle id="465" depart="465.00">
        <route edges="-702628877"/>
    </vehicle>
    <vehicle id="467" depart="467.00">
        <route edges="44950739#0 -44950739#0"/>
    </vehicle>
    <vehicle id="471" depart="471.00">
        <route edges="702628873#1 -702628873#1 -702628873#0"/>
    </vehicle>
    <vehicle id="473" depart="473.00">
        <route edges="-702628877 -702628873#0"/>
    </vehicle>
    <vehicle id="474" depart="474.00">
        <route edges="-702628873#1 702628877 -702628877"/>
    </vehicle>
    <vehicle id="476" depart="476.00">
        <route edges="702628877 -702628877"/>
    </vehicle>
    <vehicle id="479" depart="479.00">
        <route edges="44950739#0 -44950739#0"/>
    </vehicle>
    <vehicle id="481" depart="481.00">
        <route edges="702628873#0 702628877 -702628873#1"/>
    </vehicle>
    <vehicle id="484" depart="484.00">
        <route edges="-702628873#1 702628877"/>
    </vehicle>
    <vehicle id="486" depart="486.00">
        <route edges="44950739#0 702689208"/>
    </vehicle>
    <vehicle id="488" depart="488.00">
        <route edges="-702628873#2 702628873#2"/>
    </vehicle>
    <vehicle id="489" depart="489.00">
        <route edges="702628873#1"/>
    </vehicle>
    <vehicle id="490" depart="490.00">
        <route edges="-702628873#1 -702628873#0"/>
    </vehicle>
    <vehicle id="491" depart="491.00">
        <route edges="-702628877 702628877 702628873#2"/>
    </vehicle>
    <vehicle id="494" depart="494.00">
        <route edges="-702628877 702628877 702628873#2"/>
    </vehicle>
    <vehicle id="495" depart="495.00">
        <route edges="-702628873#2 -702628873#1 702628873#1"/>
    </vehicle>
    <vehicle id="496" depart="496.00">
        <route edges="702628873#1 702628873#2"/>
    </vehicle>
    <vehicle id="497" depart="497.00">
        <route edges="-702628873#2 -702628873#1 702628877"/>
    </vehicle>