<?xml version="1.0" encoding="UTF-8"?>

<!-- generated on Sat Apr 18 12:27:41 2020 by SUMO netconvert Version 0.32.0
<?xml version="1.0" encoding="UTF-8"?>

<configuration xmlns:xsi="http://www.w3.org/2001/XMLSchema-instance" xsi:noNamespaceSchemaLocation="http://sumo.dlr.de/xsd/netconvertConfiguration.xsd">

    <input>
        <osm-files value="Chakeri.osm"/>
    </input>

    <output>
        <output-file value="chakeri.net.xml"/>
    </output>

    <projection>
        <proj.utm value="true"/>
    </projection>

</configuration>
-->

<net version="0.27" xmlns:xsi="http://www.w3.org/2001/XMLSchema-instance" xsi:noNamespaceSchemaLocation="http://sumo.dlr.de/xsd/net_file.xsd">

    <location netOffset="-433466.40,-2896616.09" convBoundary="0.00,0.00,18500.37,29734.58" origBoundary="80.332615,26.188209,80.519275,26.456058" projParameter="+proj=utm +zone=44 +ellps=WGS84 +datum=WGS84 +units=m +no_defs"/>

    <type id="highway.bridleway" priority="1" numLanes="1" speed="2.78" allow="pedestrian" oneway="1" width="2.00"/>
    <type id="highway.bus_guideway" priority="1" numLanes="1" speed="8.33" allow="bus" oneway="1"/>
    <type id="highway.cycleway" priority="1" numLanes="1" speed="5.56" allow="bicycle" oneway="0" width="1.00"/>
    <type id="highway.footway" priority="1" numLanes="1" speed="2.78" allow="pedestrian" oneway="1" width="2.00"/>
    <type id="highway.ford" priority="1" numLanes="1" speed="2.78" allow="army" oneway="0"/>
    <type id="highway.living_street" priority="3" numLanes="1" speed="2.78" disallow="tram rail_urban rail rail_electric ship" oneway="0"/>
    <type id="highway.motorway" priority="13" numLanes="2" speed="44.44" allow="private emergency authority army vip passenger hov taxi bus coach delivery truck trailer motorcycle evehicle custom1 custom2" oneway="1"/>
    <type id="highway.motorway_link" priority="12" numLanes="1" speed="22.22" allow="private emergency authority army vip passenger hov taxi bus coach delivery truck trailer motorcycle evehicle custom1 custom2" oneway="1"/>
    <type id="highway.path" priority="1" numLanes="1" speed="2.78" allow="bicycle pedestrian" oneway="1" width="2.00"/>
    <type id="highway.pedestrian" priority="1" numLanes="1" speed="2.78" allow="pedestrian" oneway="1" width="2.00"/>
    <type id="highway.primary" priority="9" numLanes="2" speed="27.78" disallow="tram rail_urban rail rail_electric ship" oneway="0"/>
    <type id="highway.primary_link" priority="8" numLanes="1" speed="22.22" disallow="tram rail_urban rail rail_electric ship" oneway="0"/>
    <type id="highway.raceway" priority="14" numLanes="2" speed="83.33" allow="vip" oneway="0"/>
    <type id="highway.residential" priority="4" numLanes="1" speed="13.89" disallow="tram rail_urban rail rail_electric ship" oneway="0"/>
    <type id="highway.secondary" priority="7" numLanes="2" speed="27.78" disallow="tram rail_urban rail rail_electric ship" oneway="0"/>
    <type id="highway.secondary_link" priority="6" numLanes="1" speed="22.22" disallow="tram rail_urban rail rail_electric ship" oneway="0"/>
    <type id="highway.service" priority="2" numLanes="1" speed="5.56" allow="delivery bicycle pedestrian" oneway="0"/>
    <type id="highway.services" priority="1" numLanes="1" speed="8.33" disallow="tram rail_urban rail rail_electric ship" oneway="0"/>
    <type id="highway.stairs" priority="1" numLanes="1" speed="1.39" allow="pedestrian" oneway="1" width="2.00"/>
    <type id="highway.step" priority="1" numLanes="1" speed="1.39" allow="pedestrian" oneway="1" width="2.00"/>
    <type id="highway.steps" priority="1" numLanes="1" speed="1.39" allow="pedestrian" oneway="1" width="2.00"/>
    <type id="highway.tertiary" priority="6" numLanes="1" speed="22.22" disallow="tram rail_urban rail rail_electric ship" oneway="0"/>
    <type id="highway.tertiary_link" priority="5" numLanes="1" speed="22.22" disallow="tram rail_urban rail rail_electric ship" oneway="0"/>
    <type id="highway.track" priority="1" numLanes="1" speed="5.56" disallow="tram rail_urban rail rail_electric ship" oneway="0"/>
    <type id="highway.trunk" priority="11" numLanes="2" speed="27.78" disallow="tram rail_urban rail rail_electric bicycle pedestrian ship" oneway="0"/>
    <type id="highway.trunk_link" priority="10" numLanes="1" speed="22.22" disallow="tram rail_urban rail rail_electric bicycle pedestrian ship" oneway="0"/>
    <type id="highway.unclassified" priority="5" numLanes="1" speed="13.89" disallow="tram rail_urban rail rail_electric ship" oneway="0"/>
    <type id="highway.unsurfaced" priority="1" numLanes="1" speed="8.33" disallow="tram rail_urban rail rail_electric ship" oneway="0"/>
    <type id="railway.light_rail" priority="15" numLanes="1" speed="27.78" allow="rail_urban" oneway="1"/>
    <type id="railway.preserved" priority="15" numLanes="1" speed="27.78" allow="rail" oneway="1"/>
    <type id="railway.rail" priority="15" numLanes="1" speed="83.33" allow="rail rail_electric" oneway="1"/>
    <type id="railway.subway" priority="15" numLanes="1" speed="27.78" allow="rail_urban" oneway="1"/>
    <type id="railway.tram" priority="15" numLanes="1" speed="13.89" allow="tram" oneway="1"/>

    <edge id=":2542708132_0" function="internal">
        <lane id=":2542708132_0_0" index="0" allow="rail rail_electric" speed="83.33" length="3.00" shape="2613.20,26749.74 2611.20,26751.98"/>
    </edge>
    <edge id=":2542708132_1" function="internal">
        <lane id=":2542708132_1_0" index="0" allow="rail rail_electric" speed="83.33" length="1.57" shape="2611.29,26752.05 2611.64,26751.58 2611.74,26751.41 2611.60,26751.55 2611.20,26751.98"/>
    </edge>
    <edge id=":2542708135_0" function="internal">
        <lane id=":2542708135_0_0" index="0" allow="rail rail_electric" speed="83.33" length="3.01" shape="2402.67,26985.12 2400.66,26987.36"/>
    </edge>
    <edge id=":2542708135_1" function="internal">
        <lane id=":2542708135_1_0" index="0" allow="rail rail_electric" speed="83.33" length="1.58" shape="2400.75,26987.44 2401.10,26986.97 2401.21,26986.80 2401.06,26986.93 2400.66,26987.36"/>
    </edge>
    <edge id=":2542708269_0" function="internal">
        <lane id=":2542708269_0_0" index="0" allow="rail rail_electric" speed="83.33" length="53.08" shape="2475.88,29727.88 2485.56,29728.43 2502.39,29729.07 2519.22,29729.62 2528.92,29729.87"/>
    </edge>
    <edge id=":2542708269_1" function="internal">
        <lane id=":2542708269_1_0" index="0" allow="rail rail_electric" speed="83.33" length="53.07" shape="2475.88,29727.88 2528.69,29733.20"/>
    </edge>
    <edge id=":559121157_0" function="internal">
        <lane id=":559121157_0_0" index="0" allow="rail rail_electric" speed="83.33" length="0.30" shape="2371.11,27012.60 2371.31,27012.37"/>
    </edge>
    <edge id=":569939079_0" function="internal">
        <lane id=":569939079_0_0" index="0" disallow="tram rail_urban rail rail_electric ship" speed="13.89" length="4.82" shape="1597.33,26131.03 1596.95,26129.59 1597.20,26128.70 1598.05,26128.36 1599.52,26128.57"/>
    </edge>
    <edge id=":569939149_0" function="internal">
        <lane id=":569939149_0_0" index="0" disallow="tram rail_urban rail rail_electric ship" speed="13.89" length="4.82" shape="2055.07,27162.98 2053.64,27162.58 2052.99,27161.92 2053.13,27161.01 2054.06,27159.84"/>
    </edge>
    <edge id=":569939428_0" function="internal">
        <lane id=":569939428_0_0" index="0" disallow="tram rail_urban rail rail_electric ship" speed="13.89" length="11.85" shape="2356.47,26957.10 2355.52,26960.21 2354.42,26962.63 2352.94,26964.85 2350.86,26967.37"/>
    </edge>
    <edge id=":569939428_1" function="internal">
        <lane id=":569939428_1_0" index="0" disallow="tram rail_urban rail rail_electric ship" speed="13.89" length="5.74" shape="2356.47,26957.10 2355.22,26959.93 2353.29,26961.52 2353.14,26961.54"/>
    </edge>
    <edge id=":569939428_2" function="internal">
        <lane id=":569939428_2_0" index="0" disallow="tram rail_urban rail rail_electric ship" speed="13.89" length="2.51" shape="2356.47,26957.10 2355.35,26958.09 2354.45,26958.28 2354.38,26958.21"/>
    </edge>
    <edge id=":569939428_9" function="internal">
        <lane id=":569939428_9_0" index="0" speed="13.89" length="5.91" shape="2353.14,26961.54 2350.68,26961.87 2347.38,26960.97"/>
    </edge>
    <edge id=":569939428_10" function="internal">
        <lane id=":569939428_10_0" index="0" speed="13.89" length="2.31" shape="2354.38,26958.21 2353.76,26957.67 2353.27,26956.27"/>
    </edge>
    <edge id=":569939428_3" function="internal">
        <lane id=":569939428_3_0" index="0" disallow="tram rail_urban rail rail_electric ship" speed="13.89" length="5.77" shape="2348.65,26957.92 2350.36,26958.41 2351.69,26958.30 2352.67,26957.58 2353.27,26956.27"/>
    </edge>
    <edge id=":569939428_4" function="internal">
        <lane id=":569939428_4_0" index="0" disallow="tram rail_urban rail rail_electric ship" speed="13.89" length="12.12" shape="2348.65,26957.92 2351.65,26959.71 2353.02,26961.88 2352.75,26964.43 2350.86,26967.37"/>
    </edge>
    <edge id=":569939428_5" function="internal">
        <lane id=":569939428_5_0" index="0" disallow="tram rail_urban rail rail_electric ship" speed="13.89" length="4.82" shape="2348.65,26957.92 2349.47,26959.16 2349.53,26960.08 2348.84,26960.68 2347.38,26960.97"/>
    </edge>
    <edge id=":569939428_6" function="internal">
        <lane id=":569939428_6_0" index="0" disallow="tram rail_urban rail rail_electric ship" speed="13.89" length="5.44" shape="2348.36,26965.20 2349.22,26963.89 2349.34,26962.74 2348.72,26961.77 2347.38,26960.97"/>
    </edge>
    <edge id=":569939428_7" function="internal">
        <lane id=":569939428_7_0" index="0" disallow="tram rail_urban rail rail_electric ship" speed="13.89" length="10.35" shape="2348.36,26965.20 2350.34,26962.89 2351.58,26961.13 2352.43,26959.17 2353.27,26956.27"/>
    </edge>
    <edge id=":569939428_8" function="internal">
        <lane id=":569939428_8_0" index="0" disallow="tram rail_urban rail rail_electric ship" speed="13.89" length="2.41" shape="2348.36,26965.20 2349.80,26964.81 2350.69,26965.04"/>
    </edge>
    <edge id=":569939428_11" function="internal">
        <lane id=":569939428_11_0" index="0" speed="13.89" length="2.41" shape="2350.69,26965.04 2351.04,26965.89 2350.86,26967.37"/>
    </edge>
    <edge id=":569939448_0" function="internal">
        <lane id=":569939448_0_0" index="0" disallow="tram rail_urban rail rail_electric ship" speed="13.89" length="4.82" shape="1962.76,27267.07 1961.43,27266.41 1960.91,27265.65 1961.22,27264.77 1962.34,27263.80"/>
    </edge>
    <edge id=":6598170375_0" function="internal">
        <lane id=":6598170375_0_0" index="0" disallow="tram rail_urban rail rail_electric ship" speed="13.89" length="4.82" shape="2207.01,26867.68 2206.80,26866.21 2207.14,26865.35 2208.03,26865.11 2209.47,26865.48"/>
    </edge>
    <edge id=":6598200253_0" function="internal">
        <lane id=":6598200253_0_0" index="0" disallow="tram rail_urban rail rail_electric ship" speed="13.89" length="4.82" shape="2255.09,27041.23 2256.56,27041.45 2257.28,27042.02 2257.26,27042.94 2256.49,27044.22"/>
    </edge>
    <edge id=":6598369312_0" function="internal">
        <lane id=":6598369312_0_0" index="0" disallow="tram rail_urban rail rail_electric ship" speed="13.89" length="9.50" shape="2450.34,27116.85 2441.61,27113.09"/>
    </edge>
    <edge id=":6598369312_1" function="internal">
        <lane id=":6598369312_1_0" index="0" disallow="tram rail_urban rail rail_electric ship" speed="13.89" length="5.19" shape="2450.34,27116.85 2447.91,27115.36 2446.54,27113.46"/>
    </edge>
    <edge id=":6598369312_2" function="internal">
        <lane id=":6598369312_2_0" index="0" disallow="tram rail_urban rail rail_electric ship" speed="13.89" length="2.41" shape="2450.34,27116.85 2449.53,27115.60 2449.47,27114.68"/>
    </edge>
    <edge id=":6598369312_9" function="internal">
        <lane id=":6598369312_9_0" index="0" speed="13.89" length="5.19" shape="2446.54,27113.46 2446.25,27111.13 2447.03,27108.39"/>
    </edge>
    <edge id=":6598369312_10" function="internal">
        <lane id=":6598369312_10_0" index="0" speed="13.89" length="2.41" shape="2449.47,27114.68 2450.18,27114.09 2451.64,27113.82"/>
    </edge>
    <edge id=":6598369312_3" function="internal">
        <lane id=":6598369312_3_0" index="0" disallow="tram rail_urban rail rail_electric ship" speed="13.89" length="5.01" shape="2450.05,27109.74 2449.67,27111.06 2449.81,27112.18 2450.47,27113.10 2451.64,27113.82"/>
    </edge>
    <edge id=":6598369312_4" function="internal">
        <lane id=":6598369312_4_0" index="0" disallow="tram rail_urban rail rail_electric ship" speed="13.89" length="10.32" shape="2450.05,27109.74 2448.54,27112.14 2446.63,27113.51 2444.32,27113.82 2441.61,27113.09"/>
    </edge>
    <edge id=":6598369312_5" function="internal">
        <lane id=":6598369312_5_0" index="0" disallow="tram rail_urban rail rail_electric ship" speed="13.89" length="4.82" shape="2450.05,27109.74 2448.79,27110.53 2447.87,27110.57 2447.28,27109.86 2447.03,27108.39"/>
    </edge>
    <edge id=":6598369312_6" function="internal">
        <lane id=":6598369312_6_0" index="0" disallow="tram rail_urban rail rail_electric ship" speed="13.89" length="5.05" shape="2442.92,27110.06 2444.24,27110.42 2445.36,27110.25 2446.29,27109.58 2447.03,27108.39"/>
    </edge>
    <edge id=":6598369312_7" function="internal">
        <lane id=":6598369312_7_0" index="0" disallow="tram rail_urban rail rail_electric ship" speed="13.89" length="9.50" shape="2442.92,27110.06 2451.64,27113.82"/>
    </edge>
    <edge id=":6598369312_8" function="internal">
        <lane id=":6598369312_8_0" index="0" disallow="tram rail_urban rail rail_electric ship" speed="13.89" length="2.41" shape="2442.92,27110.06 2443.73,27111.31 2443.78,27112.23"/>
    </edge>
    <edge id=":6598369312_11" function="internal">
        <lane id=":6598369312_11_0" index="0" speed="13.89" length="2.41" shape="2443.78,27112.23 2443.08,27112.83 2441.61,27113.09"/>
    </edge>
    <edge id=":6598369314_0" function="internal">
        <lane id=":6598369314_0_0" index="0" disallow="tram rail_urban rail rail_electric ship" speed="13.89" length="9.50" shape="2529.67,27096.52 2526.00,27105.28"/>
    </edge>
    <edge id=":6598369314_1" function="internal">
        <lane id=":6598369314_1_0" index="0" disallow="tram rail_urban rail rail_electric ship" speed="13.89" length="5.28" shape="2529.67,27096.52 2528.21,27098.95 2526.33,27100.33 2526.22,27100.35"/>
    </edge>
    <edge id=":6598369314_2" function="internal">
        <lane id=":6598369314_2_0" index="0" disallow="tram rail_urban rail rail_electric ship" speed="13.89" length="2.41" shape="2529.67,27096.52 2528.43,27097.34 2527.51,27097.40"/>
    </edge>
    <edge id=":6598369314_9" function="internal">
        <lane id=":6598369314_9_0" index="0" speed="13.89" length="5.06" shape="2526.22,27100.35 2524.02,27100.66 2521.28,27099.94"/>
    </edge>
    <edge id=":6598369314_10" function="internal">
        <lane id=":6598369314_10_0" index="0" speed="13.89" length="2.41" shape="2527.51,27097.40 2526.91,27096.70 2526.62,27095.24"/>
    </edge>
    <edge id=":6598369314_3" function="internal">
        <lane id=":6598369314_3_0" index="0" disallow="tram rail_urban rail rail_electric ship" speed="13.89" length="5.00" shape="2522.56,27096.90 2523.89,27097.25 2525.01,27097.09 2525.92,27096.42 2526.62,27095.24"/>
    </edge>
    <edge id=":6598369314_4" function="internal">
        <lane id=":6598369314_4_0" index="0" disallow="tram rail_urban rail rail_electric ship" speed="13.89" length="10.32" shape="2522.56,27096.90 2524.99,27098.36 2526.37,27100.24 2526.71,27102.55 2526.00,27105.28"/>
    </edge>
    <edge id=":6598369314_5" function="internal">
        <lane id=":6598369314_5_0" index="0" disallow="tram rail_urban rail rail_electric ship" speed="13.89" length="4.82" shape="2522.56,27096.90 2523.38,27098.14 2523.44,27099.06 2522.74,27099.66 2521.28,27099.94"/>
    </edge>
    <edge id=":6598369314_6" function="internal">
        <lane id=":6598369314_6_0" index="0" disallow="tram rail_urban rail rail_electric ship" speed="13.89" length="5.01" shape="2522.95,27104.01 2523.30,27102.68 2523.13,27101.56 2522.46,27100.65 2521.28,27099.94"/>
    </edge>
    <edge id=":6598369314_7" function="internal">
        <lane id=":6598369314_7_0" index="0" disallow="tram rail_urban rail rail_electric ship" speed="13.89" length="9.50" shape="2522.95,27104.01 2526.62,27095.24"/>
    </edge>
    <edge id=":6598369314_8" function="internal">
        <lane id=":6598369314_8_0" index="0" disallow="tram rail_urban rail rail_electric ship" speed="13.89" length="2.41" shape="2522.95,27104.01 2524.19,27103.18 2525.11,27103.12"/>
    </edge>
    <edge id=":6598369314_11" function="internal">
        <lane id=":6598369314_11_0" index="0" speed="13.89" length="2.41" shape="2525.11,27103.12 2525.72,27103.82 2526.00,27105.28"/>
    </edge>
    <edge id=":6598369317_0" function="internal">
        <lane id=":6598369317_0_0" index="0" disallow="tram rail_urban rail rail_electric ship" speed="13.89" length="4.82" shape="2394.05,27092.62 2393.24,27091.37 2393.19,27090.45 2393.90,27089.86 2395.36,27089.59"/>
    </edge>
    <edge id=":6598369321_0" function="internal">
        <lane id=":6598369321_0_0" index="0" disallow="tram rail_urban rail rail_electric ship" speed="13.89" length="4.82" shape="2556.74,27024.21 2558.04,27023.50 2558.96,27023.51 2559.50,27024.26 2559.66,27025.74"/>
    </edge>

    <edge id="-44950739#0" from="569939428" to="569939448" priority="4" type="highway.residential" shape="2353.55,26961.76 2269.45,27058.48 2226.35,27102.43 2173.80,27166.04 2134.48,27199.82 2064.58,27236.92 2014.38,27258.72 1962.55,27265.43">
        <lane id="-44950739#0_0" index="0" disallow="tram rail_urban rail rail_electric ship" speed="13.89" length="505.40" shape="2350.86,26967.37 2270.66,27059.60 2227.58,27103.53 2174.99,27167.20 2135.41,27201.19 2065.30,27238.41 2014.82,27260.32 1962.76,27267.07"/>
    </edge>
    <edge id="-44950739#1" from="569939079" to="569939428" priority="4" type="highway.residential" shape="1598.43,26129.80 1719.12,26237.70 1829.64,26336.50 1902.88,26401.98 1960.27,26453.29 2022.00,26508.28 2031.84,26517.05 2067.72,26549.00 2117.67,26593.51 2215.33,26680.50 2389.36,26832.96 2370.90,26895.18 2353.55,26961.76">
        <lane id="-44950739#1_0" index="0" disallow="tram rail_urban rail rail_electric ship" speed="13.89" length="1188.81" shape="1599.52,26128.57 1720.22,26236.47 1830.74,26335.27 1903.98,26400.75 1961.37,26452.06 2023.10,26507.05 2032.94,26515.82 2068.82,26547.77 2118.77,26592.28 2216.42,26679.26 2391.24,26832.41 2372.49,26895.63 2356.47,26957.10"/>
    </edge>
    <edge id="-702608806" from="6598200253" to="569939149" priority="4" type="highway.residential" shape="2255.79,27042.72 2228.04,27055.75 2180.58,27057.86 2182.60,27088.05 2124.28,27139.01 2054.56,27161.41">
        <lane id="-702608806_0" index="0" disallow="tram rail_urban rail rail_electric ship" speed="13.89" length="258.69" shape="2256.49,27044.22 2228.44,27057.39 2182.34,27059.44 2184.30,27088.75 2125.11,27140.48 2055.07,27162.98"/>
    </edge>
    <edge id="-702628873#0" from="6598369314" to="6598369321" priority="4" type="highway.residential" shape="2526.31,27100.27 2541.30,27064.48 2556.36,27028.50 2558.20,27024.98">
        <lane id="-702628873#0_0" index="0" disallow="tram rail_urban rail rail_electric ship" speed="13.89" length="77.16" shape="2526.62,27095.24 2539.78,27063.84 2554.87,27027.79 2556.74,27024.21"/>
    </edge>
    <edge id="-702628873#1" from="6598369312" to="6598369314" priority="4" type="highway.residential" shape="2446.59,27113.44 2504.33,27138.31 2509.41,27138.15 2513.13,27131.75 2526.31,27100.27">
        <lane id="-702628873#1_0" index="0" disallow="tram rail_urban rail rail_electric ship" speed="13.89" length="97.17" shape="2451.64,27113.82 2504.64,27136.64 2508.45,27136.53 2511.65,27131.01 2522.95,27104.01"/>
    </edge>
    <edge id="-702628873#2" from="6598369317" to="6598369312" priority="4" type="highway.residential">
        <lane id="-702628873#2_0" index="0" disallow="tram rail_urban rail rail_electric ship" speed="13.89" length="51.78" shape="2395.36,27089.59 2442.92,27110.06"/>
    </edge>
    <edge id="-702628877" from="6598369312" to="6598369314" priority="4" type="highway.residential" shape="2446.59,27113.44 2464.16,27074.00 2526.31,27100.27">
        <lane id="-702628877_0" index="0" disallow="tram rail_urban rail rail_electric ship" speed="13.89" length="104.33" shape="2447.03,27108.39 2463.31,27071.85 2522.56,27096.90"/>
    </edge>
    <edge id="-702689208" from="6598170375" to="569939428" priority="4" type="highway.residential" shape="2208.24,26866.58 2219.53,26879.16 2232.64,26880.69 2265.54,26881.59 2268.87,26904.46 2292.40,26901.15 2301.23,26957.77 2325.27,26949.93 2353.55,26961.76">
        <lane id="-702689208_0" index="0" disallow="tram rail_urban rail rail_electric ship" speed="13.89" length="215.82" shape="2209.47,26865.48 2220.34,26877.59 2232.76,26879.04 2266.98,26879.98 2270.27,26902.59 2293.77,26899.29 2302.57,26955.60 2325.34,26948.17 2348.65,26957.92"/>
    </edge>
    <edge id="215507931" from="559121157" to="2542661711" priority="15" type="railway.rail" spreadType="center" shape="2371.21,27012.49 2484.84,26886.06 2568.28,26791.64 2671.34,26675.91 2794.87,26542.82 3026.38,26286.75 3252.47,26033.46 3334.26,25942.09 3419.56,25847.47 3588.07,25658.69 3786.36,25437.75 4062.81,25127.96 4368.73,24785.39 4679.95,24436.24 5030.55,24043.85 5393.67,23638.64 5648.74,23352.85 5801.24,23181.23 6106.74,22841.10 6337.31,22583.04 6544.78,22350.77 6697.78,22179.63 6850.12,22008.71 6977.53,21865.78 7115.64,21710.83 7389.22,21407.18 7545.56,21230.44 7704.41,21054.22 7774.11,20975.88 8071.16,20642.42 8400.08,20274.97 8578.90,20075.03 9060.77,19535.49 9617.86,18912.60 9878.69,18620.86 10139.71,18327.85 10591.64,17825.75 10748.76,17651.54 10832.27,17552.80 10917.09,17447.66 11007.12,17326.97 11090.08,17208.70 11143.71,17127.80 11274.22,16916.38 11338.85,16800.53 11403.52,16680.55 11462.63,16557.94 11521.18,16433.07 11624.43,16174.67 12508.21,13555.42 12777.70,12752.18 12960.88,12185.84 13040.13,11940.78 13219.77,11407.75 13402.05,10881.24 13711.18,9961.49 14023.02,9041.59 14205.19,8491.67 14849.93,6578.87 15188.27,5576.95 15217.18,5491.32 15802.02,3753.63 15969.09,3257.96 16064.31,2971.06 16141.19,2761.31 16197.59,2613.86 16258.79,2468.34 16393.60,2187.11 16536.76,1920.13 16641.87,1755.95 16679.51,1697.15 16821.23,1501.96 16975.14,1307.14 17180.76,1082.45 17283.60,983.02 17397.25,881.51 17620.10,691.06 18308.58,141.40 18469.99,0.00">
        <lane id="215507931_0" index="0" allow="rail rail_electric" speed="83.33" length="32115.51" shape="2371.31,27012.37 2484.84,26886.06 2568.28,26791.64 2671.34,26675.91 2794.87,26542.82 3026.38,26286.75 3252.47,26033.46 3334.26,25942.09 3419.56,25847.47 3588.07,25658.69 3786.36,25437.75 4062.81,25127.96 4368.73,24785.39 4679.95,24436.24 5030.55,24043.85 5393.67,23638.64 5648.74,23352.85 5801.24,23181.23 6106.74,22841.10 6337.31,22583.04 6544.78,22350.77 6697.78,22179.63 6850.12,22008.71 6977.53,21865.78 7115.64,21710.83 7389.22,21407.18 7545.56,21230.44 7704.41,21054.22 7774.11,20975.88 8071.16,20642.42 8400.08,20274.97 8578.90,20075.03 9060.77,19535.49 9617.86,18912.60 9878.69,18620.86 10139.71,18327.85 10591.64,17825.75 10748.76,17651.54 10832.27,17552.80 10917.09,17447.66 11007.12,17326.97 11090.08,17208.70 11143.71,17127.80 11274.22,16916.38 11338.85,16800.53 11403.52,16680.55 11462.63,16557.94 11521.18,16433.07 11624.43,16174.67 12508.21,13555.42 12777.70,12752.18 12960.88,12185.84 13040.13,11940.78 13219.77,11407.75 13402.05,10881.24 13711.18,9961.49 14023.02,9041.59 14205.19,8491.67 14849.93,6578.87 15188.27,5576.95 15217.18,5491.32 15802.02,3753.63 15969.09,3257.96 16064.31,2971.06 16141.19,2761.31 16197.59,2613.86 16258.79,2468.34 16393.60,2187.11 16536.76,1920.13 16641.87,1755.95 16679.51,1697.15 16821.23,1501.96 16975.14,1307.14 17180.76,1082.45 17283.60,983.02 17397.25,881.51 17620.10,691.06 18308.58,141.40 18469.99,0.00"/>
    </edge>
    <edge id="247366582#0" from="2542661713" to="2542708132" priority="15" type="railway.rail" spreadType="center" shape="18500.37,18.73 18445.81,59.75 17985.46,420.88 17873.86,503.60 17756.62,590.77 17624.28,694.88 17401.51,883.00 17284.68,989.88 17184.04,1087.73 16981.23,1311.17 16826.25,1507.56 16686.51,1699.51 16647.58,1759.79 16542.44,1922.52 16399.18,2190.73 16262.22,2469.36 16144.79,2763.03 16068.13,2972.58 15973.21,3262.17 15806.63,3755.04 15221.43,5493.24 15192.80,5578.43 14855.74,6581.07 14211.32,8492.71 14027.34,9043.15 13716.66,9962.75 13407.25,10883.21 13045.99,11943.15 12966.59,12186.50 12781.24,12754.59 12512.33,13557.27 11628.37,16175.69 11525.68,16434.77 11467.07,16560.75 11407.58,16682.90 11278.97,16920.34 11149.43,17128.95 11094.51,17209.95 11010.50,17329.12 10923.23,17448.62 10836.23,17555.78 10752.78,17655.15 10594.27,17829.18 10145.78,18331.64 9879.87,18627.24 9620.75,18916.67 9065.74,19537.38 8583.32,20077.58 8402.72,20278.93 8075.67,20645.43 7777.59,20979.18 7394.46,21412.88 6981.71,21868.62 6854.74,22011.78 6701.84,22182.09 6547.26,22354.44 6341.38,22586.01 6109.99,22843.65 5806.17,23184.71 5653.58,23355.77 5397.66,23641.00 5034.55,24046.33 4683.92,24438.98 4373.40,24789.09 3791.63,25439.54 3423.48,25851.15 3254.45,26035.95 3030.23,26289.78 2797.85,26546.93 2676.22,26679.21 2612.24,26750.81">
        <lane id="247366582#0_0" index="0" allow="rail rail_electric" speed="83.33" length="31769.21" shape="18500.37,18.73 18445.81,59.75 17985.46,420.88 17873.86,503.60 17756.62,590.77 17624.28,694.88 17401.51,883.00 17284.68,989.88 17184.04,1087.73 16981.23,1311.17 16826.25,1507.56 16686.51,1699.51 16647.58,1759.79 16542.44,1922.52 16399.18,2190.73 16262.22,2469.36 16144.79,2763.03 16068.13,2972.58 15973.21,3262.17 15806.63,3755.04 15221.43,5493.24 15192.80,5578.43 14855.74,6581.07 14211.32,8492.71 14027.34,9043.15 13716.66,9962.75 13407.25,10883.21 13045.99,11943.15 12966.59,12186.50 12781.24,12754.59 12512.33,13557.27 11628.37,16175.69 11525.68,16434.77 11467.07,16560.75 11407.58,16682.90 11278.97,16920.34 11149.43,17128.95 11094.51,17209.95 11010.50,17329.12 10923.23,17448.62 10836.23,17555.78 10752.78,17655.15 10594.27,17829.18 10145.78,18331.64 9879.87,18627.24 9620.75,18916.67 9065.74,19537.38 8583.32,20077.58 8402.72,20278.93 8075.67,20645.43 7777.59,20979.18 7394.46,21412.88 6981.71,21868.62 6854.74,22011.78 6701.84,22182.09 6547.26,22354.44 6341.38,22586.01 6109.99,22843.65 5806.17,23184.71 5653.58,23355.77 5397.66,23641.00 5034.55,24046.33 4683.92,24438.98 4373.40,24789.09 3791.63,25439.54 3423.48,25851.15 3254.45,26035.95 3030.23,26289.78 2797.85,26546.93 2676.22,26679.21 2613.20,26749.74"/>
    </edge>
    <edge id="247366582#1" from="2542708132" to="2542708135" priority="15" type="railway.rail" spreadType="center" shape="2612.24,26750.81 2451.31,26930.28 2401.71,26986.19">
        <lane id="247366582#1_0" index="0" allow="rail rail_electric" speed="83.33" length="312.80" shape="2611.20,26751.98 2451.31,26930.28 2402.67,26985.12"/>
    </edge>
    <edge id="247366582#2" from="2542708135" to="3192273732" priority="15" type="railway.rail" spreadType="center" shape="2401.71,26986.19 2345.33,27048.82 2195.18,27217.02 2077.75,27346.72 1927.86,27516.25 1853.51,27586.71 1779.36,27652.91 1690.75,27732.25 1627.22,27801.61 1586.41,27845.62 1549.50,27890.08 1513.12,27946.91 1484.51,27989.02 1440.07,28044.98 1369.19,28124.19 1315.19,28184.44 1172.62,28344.62 989.27,28549.85 886.29,28664.93 639.79,28941.28 609.59,28975.56 577.27,29005.24 556.08,29023.95 521.66,29050.72 480.22,29078.69 418.21,29118.76 364.36,29151.31 312.29,29179.40 270.91,29200.01 237.71,29214.45 206.98,29226.61 150.01,29245.71 63.91,29272.75 0.00,29293.17">
        <lane id="247366582#2_0" index="0" allow="rail rail_electric" speed="83.33" length="3373.74" shape="2400.66,26987.36 2345.33,27048.82 2195.18,27217.02 2077.75,27346.72 1927.86,27516.25 1853.51,27586.71 1779.36,27652.91 1690.75,27732.25 1627.22,27801.61 1586.41,27845.62 1549.50,27890.08 1513.12,27946.91 1484.51,27989.02 1440.07,28044.98 1369.19,28124.19 1315.19,28184.44 1172.62,28344.62 989.27,28549.85 886.29,28664.93 639.79,28941.28 609.59,28975.56 577.27,29005.24 556.08,29023.95 521.66,29050.72 480.22,29078.69 418.21,29118.76 364.36,29151.31 312.29,29179.40 270.91,29200.01 237.71,29214.45 206.98,29226.61 150.01,29245.71 63.91,29272.75 0.00,29293.17"/>
    </edge>
    <edge id="247373415" from="2542708269" to="2542708132" priority="15" type="railway.rail" spreadType="center" shape="2477.43,29728.06 2542.50,29734.58 2591.18,29729.20 2640.09,29719.45 2690.94,29702.63 2723.84,29686.33 2765.42,29664.88 2797.68,29643.23 2847.44,29599.37 2910.90,29524.48 2945.58,29468.10 2977.77,29409.46 2988.47,29386.38 3000.76,29356.30 3018.89,29293.38 3027.19,29252.60 3032.62,29200.85 3032.69,29116.67 3028.92,29079.74 3021.93,29038.94 3002.82,28974.11 2985.27,28930.01 2960.32,28879.39 2931.37,28831.05 2903.52,28795.07 2868.00,28755.29 2833.44,28724.09 2717.70,28622.84 2646.92,28557.29 2574.64,28495.66 2484.30,28409.56 2454.35,28376.59 2422.78,28337.56 2365.71,28252.23 2316.25,28152.62 2298.25,28108.15 2280.15,28053.44 2260.85,27952.69 2243.98,27843.08 2226.05,27719.20 2215.18,27621.86 2209.22,27519.86 2211.58,27465.94 2218.56,27409.82 2231.44,27332.72 2248.47,27266.02 2272.98,27197.54 2296.32,27150.34 2322.60,27103.69 2349.02,27066.09 2385.33,27017.10 2405.34,26991.06 2570.77,26804.22 2612.24,26750.81">