<configuration>
  <input>
    <net-file value="chakeri.net.xml"/>
    <route-files value= "chakeri.rou.xml" />
  </input>

  <time>
    <begin value="0"/>
    <end value="1000"/>
  </time>
</configuration>
