<?xml version="1.0" encoding="UTF-8"?>

<!-- generated on Wed Mar 18 19:06:12 2020 by SUMO polyconvert Version 0.32.0
<?xml version="1.0" encoding="UTF-8"?>

<configuration xmlns:xsi="http://www.w3.org/2001/XMLSchema-instance" xsi:noNamespaceSchemaLocation="http://sumo.dlr.de/xsd/polyconvertConfiguration.xsd">

    <input>
        <net-file value="map.net.xml"/>
        <osm-files value="map.osm"/>
        <type-file value="typemap.xml"/>
    </input>

    <output>
        <output-file value="map.poly.xml"/>
    </output>

    <processing>
        <poi-layer-offset value="5"/>
    </processing>

</configuration>
-->

<additional xmlns:xsi="http://www.w3.org/2001/XMLSchema-instance" xsi:noNamespaceSchemaLocation="http://sumo.dlr.de/xsd/additional_file.xsd">
    <location netOffset="-716745.16,-3139972.19" convBoundary="-5324.62,-4740.65,13763.67,23942.44" origBoundary="77.160268,28.323342,77.351352,28.583464" projParameter="+proj=utm +zone=43 +ellps=WGS84 +datum=WGS84 +units=m +no_defs"/>

    <poly id="102684251" type="historic" color="128,255,128" fill="1" layer="-1.00" shape="4653.33,15985.69 4603.68,16010.93 4562.06,16027.95 4553.41,16016.32 4545.03,16013.96 4536.49,16020.41 4536.74,16031.00 4540.60,16037.68 4520.94,16046.13 4513.79,16049.08 4509.48,16042.82 4504.69,16038.33 4498.51,16036.45 4490.91,16040.28 4488.10,16048.17 4491.48,16057.04 4453.19,16066.47 4429.13,16073.06 4420.67,16074.67 4418.18,16066.24 4402.60,16069.91 4402.86,16079.62 4376.14,16086.18 4360.97,16091.18 4356.64,16086.24 4350.90,16084.37 4343.78,16086.00 4341.01,16092.13 4341.73,16100.96 4317.16,16111.08 4309.84,16099.92 4302.27,16101.54 4298.12,16110.28 4299.36,16115.16 4285.44,16125.03 4274.03,16142.01 4244.03,16158.21 4240.16,16151.96 4233.13,16148.75 4224.22,16151.22 4221.85,16159.11 4223.88,16168.85 4227.35,16172.88 4196.37,16193.91 4144.28,16230.40 4079.68,16271.52 4032.58,16290.43 3987.70,16329.20 3942.18,16355.91 3921.47,16352.94 3918.98,16359.30 3916.67,16365.16 3915.10,16369.18 3944.45,16373.18 3949.23,16395.66 3979.26,16455.65 4007.51,16519.04 4059.04,16586.32 4092.98,16623.13 4119.56,16648.22 4142.31,16669.69 4145.39,16689.56 4157.48,16691.50 4163.73,16681.29 4151.92,16664.70 4181.19,16627.37 4190.82,16621.86 4200.37,16629.63 4209.47,16624.29 4213.88,16617.19 4252.04,16608.25 4295.14,16597.65 4346.22,16606.88 4348.66,16624.15 4359.69,16627.12 4366.74,16620.35 4362.18,16605.11 4373.52,16591.54 4396.13,16567.87 4404.44,16567.32 4406.32,16577.70 4413.85,16582.66 4422.29,16575.93 4420.47,16562.12 4448.80,16565.41 4470.31,16563.05 4486.06,16535.80 4512.20,16508.73 4555.09,16474.40 4604.80,16445.72 4670.32,16422.84 4715.17,16394.75 4750.74,16381.65 4766.41,16358.52 4761.60,16315.33 4760.49,16305.35 4760.12,16297.29 4758.52,16262.61 4758.86,16208.18 4754.80,16166.77 4750.77,16123.29 4752.90,16117.60 4755.88,16109.60 4756.50,16103.74 4757.56,16093.79 4790.58,16068.92 4845.30,16031.37 4878.38,16003.75 4926.14,15968.14 4945.08,15955.40 4942.58,15940.89 4925.92,15943.34 4911.87,15953.40 4895.08,15925.52 4883.65,15907.39 4899.20,15891.15 4898.80,15875.30 4887.89,15866.83 4871.10,15875.47 4856.83,15860.73 4837.80,15841.77 4832.49,15829.96 4829.26,15817.49 4819.69,15810.43 4805.76,15814.99 4797.96,15824.48 4800.47,15838.30 4788.46,15850.48 4774.92,15870.89 4752.82,15904.24 4740.43,15900.56 4731.29,15907.28 4735.22,15919.76 4714.71,15938.55 4701.64,15933.53 4690.09,15943.31 4691.77,15956.91 4668.40,15973.61 4653.33,15985.69"/>
    <poly id="102684251#1" type="tourism" color="207,245,201" fill="1" layer="-2.00" shape="4653.33,15985.69 4603.68,16010.93 4562.06,16027.95 4553.41,16016.32 4545.03,16013.96 4536.49,16020.41 4536.74,16031.00 4540.60,16037.68 4520.94,16046.13 4513.79,16049.08 4509.48,16042.82 4504.69,16038.33 4498.51,16036.45 4490.91,16040.28 4488.10,16048.17 4491.48,16057.04 4453.19,16066.47 4429.13,16073.06 4420.67,16074.67 4418.18,16066.24 4402.60,16069.91 4402.86,16079.62 4376.14,16086.18 4360.97,16091.18 4356.64,16086.24 4350.90,16084.37 4343.78,16086.00 4341.01,16092.13 4341.73,16100.96 4317.16,16111.08 4309.84,16099.92 4302.27,16101.54 4298.12,16110.28 4299.36,16115.16 4285.44,16125.03 4274.03,16142.01 4244.03,16158.21 4240.16,16151.96 4233.13,16148.75 4224.22,16151.22 4221.85,16159.11 4223.88,16168.85 4227.35,16172.88 4196.37,16193.91 4144.28,16230.40 4079.68,16271.52 4032.58,16290.43 3987.70,16329.20 3942.18,16355.91 3921.47,16352.94 3918.98,16359.30 3916.67,16365.16 3915.10,16369.18 3944.45,16373.18 3949.23,16395.66 3979.26,16455.65 4007.51,16519.04 4059.04,16586.32 4092.98,16623.13 4119.56,16648.22 4142.31,16669.69 4145.39,16689.56 4157.48,16691.50 4163.73,16681.29 4151.92,16664.70 4181.19,16627.37 4190.82,16621.86 4200.37,16629.63 4209.47,16624.29 4213.88,16617.19 4252.04,16608.25 4295.14,16597.65 4346.22,16606.88 4348.66,16624.15 4359.69,16627.12 4366.74,16620.35 4362.18,16605.11 4373.52,16591.54 4396.13,16567.87 4404.44,16567.32 4406.32,16577.70 4413.85,16582.66 4422.29,16575.93 4420.47,16562.12 4448.80,16565.41 4470.31,16563.05 4486.06,16535.80 4512.20,16508.73 4555.09,16474.40 4604.80,16445.72 4670.32,16422.84 4715.17,16394.75 4750.74,16381.65 4766.41,16358.52 4761.60,16315.33 4760.49,16305.35 4760.12,16297.29 4758.52,16262.61 4758.86,16208.18 4754.80,16166.77 4750.77,16123.29 4752.90,16117.60 4755.88,16109.60 4756.50,16103.74 4757.56,16093.79 4790.58,16068.92 4845.30,16031.37 4878.38,16003.75 4926.14,15968.14 4945.08,15955.40 4942.58,15940.89 4925.92,15943.34 4911.87,15953.40 4895.08,15925.52 4883.65,15907.39 4899.20,15891.15 4898.80,15875.30 4887.89,15866.83 4871.10,15875.47 4856.83,15860.73 4837.80,15841.77 4832.49,15829.96 4829.26,15817.49 4819.69,15810.43 4805.76,15814.99 4797.96,15824.48 4800.47,15838.30 4788.46,15850.48 4774.92,15870.89 4752.82,15904.24 4740.43,15900.56 4731.29,15907.28 4735.22,15919.76 4714.71,15938.55 4701.64,15933.53 4690.09,15943.31 4691.77,15956.91 4668.40,15973.61 4653.33,15985.69"/>
    <poly id="102758311" type="amenity" color="237,199,199" fill="1" layer="-1.00" shape="4770.73,15982.15 4771.35,15930.66 4776.32,15930.05 4776.07,15981.54 4770.73,15982.15"/>
    <poly id="102758311#1" type="building" color="255,230,230" fill="1" layer="-1.00" shape="4770.73,15982.15 4771.35,15930.66 4776.32,15930.05 4776.07,15981.54 4770.73,15982.15"/>
    <poly id="102758311#2" type="tourism" color="207,245,201" fill="1" layer="-2.00" shape="4770.73,15982.15 4771.35,15930.66 4776.32,15930.05 4776.07,15981.54 4770.73,15982.15"/>
    <poly id="102758313" type="historic" color="128,255,128" fill="1" layer="-1.00" shape="4413.07,16095.92 4426.57,16114.09 4444.81,16102.03 4434.12,16081.16 4413.07,16095.92"/>
    <poly id="102758314" type="historic" color="128,255,128" fill="1" layer="-1.00" shape="4514.71,16062.96 4514.54,16118.94 4548.67,16118.71 4550.30,16150.04 4551.89,16183.59 4552.14,16216.66 4552.28,16256.79 4552.04,16269.57 4585.30,16268.43 4584.56,16213.31 4583.76,16161.70 4585.23,16107.49 4586.22,16055.48 4538.81,16054.14 4539.05,16064.74 4514.71,16062.96"/>
    <poly id="102758345" type="historic" color="128,255,128" fill="1" layer="-1.00" shape="4539.12,15741.09 4534.87,15741.36 4531.72,15738.83 4530.73,15734.93 4533.28,15731.45 4537.53,15731.53 4542.07,15735.14 4547.40,15734.89 4556.08,15725.53 4569.05,15714.49 4576.60,15709.34 4578.83,15704.08 4575.35,15700.14 4576.85,15695.94 4581.45,15696.37 4584.95,15699.26 4585.23,15703.15 4597.74,15697.74 4607.41,15692.98 4610.69,15687.40 4617.09,15686.82 4620.92,15690.77 4621.52,15696.43 4615.79,15699.49 4610.10,15700.09 4609.56,15710.30 4609.39,15719.13 4611.08,15723.75 4616.04,15723.84 4618.43,15728.47 4616.56,15733.72 4611.62,15732.93 4608.50,15728.99 4600.54,15736.95 4591.87,15745.60 4584.96,15754.64 4582.07,15758.11 4585.20,15760.65 4585.48,15765.24 4583.26,15769.78 4577.94,15769.68 4575.22,15763.98 4574.58,15759.74 4561.95,15752.80 4550.75,15745.18 4543.73,15741.53 4539.12,15741.09"/>
    <poly id="102758345#1" type="tourism" color="207,245,201" fill="1" layer="-2.00" shape="4539.12,15741.09 4534.87,15741.36 4531.72,15738.83 4530.73,15734.93 4533.28,15731.45 4537.53,15731.53 4542.07,15735.14 4547.40,15734.89 4556.08,15725.53 4569.05,15714.49 4576.60,15709.34 4578.83,15704.08 4575.35,15700.14 4576.85,15695.94 4581.45,15696.37 4584.95,15699.26 4585.23,15703.15 4597.74,15697.74 4607.41,15692.98 4610.69,15687.40 4617.09,15686.82 4620.92,15690.77 4621.52,15696.43 4615.79,15699.49 4610.10,15700.09 4609.56,15710.30 4609.39,15719.13 4611.08,15723.75 4616.04,15723.84 4618.43,15728.47 4616.56,15733.72 4611.62,15732.93 4608.50,15728.99 4600.54,15736.95 4591.87,15745.60 4584.96,15754.64 4582.07,15758.11 4585.20,15760.65 4585.48,15765.24 4583.26,15769.78 4577.94,15769.68 4575.22,15763.98 4574.58,15759.74 4561.95,15752.80 4550.75,15745.18 4543.73,15741.53 4539.12,15741.09"/>
    <poly id="102758346" type="historic" color="128,255,128" fill="1" layer="-1.00" shape="4566.38,15743.72 4563.64,15738.02 4565.54,15731.70 4570.57,15727.92 4579.42,15729.14 4583.60,15733.10 4582.74,15741.20 4579.47,15745.37 4573.08,15745.25 4566.38,15743.72"/>
    <poly id="137412483" type="parking" color="184,184,179" fill="1" layer="-1.00" shape="4612.72,15963.18 4635.03,15950.01 4654.73,15936.27 4645.65,15919.59 4584.06,15962.18 4612.72,15963.18"/>
    <poly id="158400679" type="landuse" color="194,194,130" fill="1" layer="-3.00" shape="8064.85,16434.61 8374.84,16606.76 8249.96,16884.62 8220.13,16950.99 8170.93,16950.05 7963.98,17188.78 7813.41,17518.91 7663.22,17474.67 7630.08,17454.63 7781.24,17115.64 7831.67,17140.67 7882.94,17033.59 7829.98,17007.67 8064.85,16434.61"/>
    <poly id="168923888" type="building" color="255,230,230" fill="1" layer="-1.00" shape="6673.91,16204.82 6573.56,16201.19 6571.49,16258.09 6671.85,16261.72 6673.91,16204.82"/>
    <poly id="169501296" type="building" color="255,230,230" fill="1" layer="-1.00" shape="3155.82,16111.68 3155.03,16081.59 3184.57,16080.84 3185.36,16110.91 3155.82,16111.68"/>
    <poly id="169501297" type="building" color="255,230,230" fill="1" layer="-1.00" shape="3119.23,16166.64 3119.04,16159.07 3115.39,16159.16 3115.28,16155.24 3121.58,16155.08 3121.17,16139.17 3114.85,16139.32 3114.69,16133.07 3121.01,16132.91 3120.23,16102.81 3101.57,16103.28 3102.91,16155.55 3107.05,16155.45 3107.19,16160.80 3109.77,16163.27 3112.93,16163.19 3112.91,16162.33 3116.98,16162.23 3117.09,16166.70 3103.12,16167.10 3103.72,16187.80 3112.08,16187.56 3112.30,16194.59 3127.62,16194.14 3127.51,16190.53 3121.48,16190.70 3121.37,16187.29 3129.39,16187.06 3128.79,16166.36 3119.23,16166.64"/>
    <poly id="170307638" type="unknown" color="51,128,255" fill="0" layer="-1.00" shape="10020.17,-3915.13 10139.92,-3902.89 10338.02,-3880.64 10529.35,-4033.11 10719.13,-4186.52 10910.40,-4339.04 11100.74,-4490.82 11393.37,-4573.65 11684.62,-4657.06 11979.63,-4740.65 12256.76,-4618.22 12506.31,-4505.19 12760.89,-4389.88 13030.52,-4266.98 13265.44,-4152.57 13438.09,-3922.20 13590.24,-3711.40 13763.67,-3471.13 13737.49,-3172.22 13711.70,-2866.64 13687.40,-2578.40 13660.21,-2274.71 13634.47,-1973.66 13607.28,-1665.94 13580.23,-1367.68 13553.07,-1068.13 13527.80,-763.38 13505.15,-461.96 13476.36,-159.77 13447.78,148.87 13421.98,453.70 13394.88,758.51 13369.66,1062.47 13341.39,1366.76 13316.06,1670.49 13288.60,1976.25 13261.97,2265.84 13230.32,2571.51 13200.81,2874.61 13173.95,3180.53 13144.06,3481.20 13064.66,3780.09 12986.13,4069.50 12906.87,4363.27 12826.40,4660.73 12744.26,4961.89 12666.42,5255.04 12599.81,5549.74 12520.54,5837.10 12491.94,5960.63 12484.66,5992.03 12453.17,6128.01 12392.79,6354.80 12298.82,6711.88 12220.49,7013.84 12142.97,7309.01 12065.46,7604.16 11987.97,7898.16 11913.35,8194.52 11838.12,8486.74 11756.56,8782.43 11680.59,9077.68 11600.04,9378.92 11526.91,9671.43 11449.78,9969.41 11370.98,10266.79 11297.49,10557.20 11219.33,10856.84 11198.00,11166.06 11172.52,11463.87 11150.44,11736.45 11129.58,12038.38 11110.97,12334.64 11091.88,12638.39 11070.34,12944.38 11054.39,13245.96 11032.80,13550.06 10853.10,13718.94 10680.69,13887.87 10504.74,14056.67 10328.74,14225.55 10030.16,14293.86 9602.26,14404.36 9393.68,14562.41 9180.29,14729.67 9051.21,14836.89 8912.35,14963.76 8830.38,15131.63 8718.48,15335.11 8726.34,15409.79 8777.04,15446.12"/>
    <poly id="170455233" type="tourism" color="207,245,201" fill="1" layer="-2.00" shape="8339.99,14735.61 8329.55,14765.30 8319.74,14808.09 8313.60,14853.79 8312.53,14886.94 8317.06,14879.38 8330.99,14850.85 8348.64,14822.17 8359.32,14803.18 8362.90,14787.32 8363.20,14771.61 8358.24,14756.03 8355.12,14751.90 8350.11,14745.41 8339.99,14735.61"/>
    <poly id="170455234" type="tourism" color="207,245,201" fill="1" layer="-2.00" shape="8430.41,14789.70 8444.56,14795.42 8469.07,14797.65 8490.85,14794.35 8500.56,14791.04 8522.16,14774.01 8541.50,14749.29 8549.58,14716.50 8554.89,14679.95 8541.66,14683.40 8523.77,14678.70 8525.05,14703.16 8527.23,14727.19 8509.87,14729.04 8500.70,14749.38 8487.09,14761.34 8430.41,14789.70"/>
    <poly id="170455238" type="tourism" color="207,245,201" fill="1" layer="-2.00" shape="8390.83,14703.42 8399.16,14726.27 8410.71,14741.77 8425.02,14750.11 8444.26,14753.53 8461.65,14750.16 8478.10,14739.12 8485.76,14728.37 8490.16,14715.79 8489.35,14700.94 8483.73,14685.35 8471.01,14673.97 8457.53,14667.60 8442.39,14667.76 8426.50,14673.34 8414.89,14684.25 8390.83,14703.42"/>
    <poly id="170455239" type="tourism" color="207,245,201" fill="1" layer="-2.00" shape="8377.49,14770.37 8376.72,14789.00 8376.67,14790.20 8371.25,14809.52 8353.12,14851.49 8342.24,14881.83 8340.06,14903.61 8341.30,14942.03 8347.32,14982.51 8363.29,14950.31 8380.65,14925.55 8391.06,14908.94 8408.95,14890.75 8409.99,14889.63 8414.75,14884.56 8422.61,14876.17 8424.93,14872.25 8432.81,14858.91 8434.66,14851.30 8437.10,14841.33 8436.08,14834.78 8435.25,14829.47 8434.94,14827.54 8423.44,14809.86 8414.60,14801.83 8377.49,14770.37"/>
    <poly id="172592348" type="water" color="181,209,209" fill="0" layer="-4.00" shape="8256.39,14483.25 8281.64,14498.41"/>
    <poly id="172592349" type="water" color="181,209,209" fill="0" layer="-4.00" shape="8281.64,14498.41 8292.59,14502.99 8346.08,14525.26 8390.65,14539.38 8439.79,14537.67 8448.55,14526.16 8477.71,14508.67 8498.54,14508.00 8524.74,14505.84 8551.30,14512.73 8582.82,14511.21 8644.88,14532.05 8667.11,14542.03 8703.96,14568.76 8729.29,14611.74 8763.44,14668.15 8829.55,14783.58 8863.02,14847.43 8869.54,14897.47 8864.24,14950.99 8841.22,15009.50 8811.97,15059.92 8785.57,15100.29 8752.81,15166.04 8746.70,15234.43 8756.69,15353.57 8771.47,15500.94 8786.43,15639.29 8799.90,15744.15 8819.04,15803.46 8872.97,15857.60 8928.64,15877.25 9001.70,15908.39 9023.57,15909.34 9065.98,15924.49 9147.51,15958.98 9418.65,16042.25 9446.33,16045.97 9472.97,16048.61 9491.69,16046.84 9527.39,16049.66 9549.32,16047.43 9571.07,16054.22"/>
    <poly id="172687970" type="building" color="255,230,230" fill="1" layer="-1.00" shape="7712.19,15553.47 7718.91,15555.37 7728.00,15557.93 7736.99,15560.46 7747.20,15563.34 7750.02,15564.12 7772.14,15486.38 7768.40,15485.32 7758.29,15482.48 7749.25,15479.93 7739.56,15477.21 7734.30,15475.72 7712.19,15553.47"/>
    <poly id="172687971" type="building" color="255,230,230" fill="1" layer="-1.00" shape="7697.71,15314.57 7689.68,15336.57 7676.04,15373.92 7662.45,15411.14 7666.30,15412.54 7662.91,15421.81 7677.79,15427.18 7673.56,15438.74 7681.45,15441.60 7688.02,15443.97 7690.98,15445.04 7712.41,15386.36 7714.55,15387.14 7720.78,15389.38 7737.64,15395.48 7745.42,15398.29 7749.20,15399.66 7770.65,15340.94 7766.83,15339.56 7758.81,15336.66 7741.99,15330.58 7735.23,15328.14 7729.90,15326.21 7722.91,15323.68 7697.71,15314.57"/>
    <poly id="172687972" type="building" color="255,230,230" fill="1" layer="-1.00" shape="7837.30,15244.11 7826.95,15242.07 7819.26,15240.55 7812.47,15239.21 7806.32,15237.99 7789.93,15320.25 7820.92,15326.36 7837.30,15244.11"/>
    <poly id="172701685" type="industrial" color="209,209,204" fill="1" layer="-3.00" shape="8718.98,15219.40 8738.99,15431.35 8762.70,15620.84 8781.69,15727.82 8796.07,15790.60 8827.45,15848.13 8892.37,15889.77 9308.01,16029.69 9374.57,16045.97 9423.68,16026.14 9472.02,16025.15 9563.49,16035.39 9610.37,15881.89 9600.36,15825.69 9600.42,15782.62 9608.56,15700.85 9556.44,15677.15 9422.58,15641.50 9404.51,15475.75 9415.71,15195.18 9488.29,15120.80 9513.57,15072.82 9553.91,14985.89 9577.41,14909.80 9598.53,14817.50 9511.72,14807.37 9372.30,14818.53 9206.15,14813.03 9154.39,14800.44 9043.08,14759.39 8951.06,14724.72 8904.52,14685.19 8763.45,14542.14 8736.00,14519.31 8710.32,14518.27 8677.93,14524.99 8679.05,14580.50 8693.61,14790.49 8726.07,14780.23 8832.48,14848.91 8843.80,14914.15 8738.61,14967.34 8756.90,15025.35 8755.41,15044.63 8750.01,15113.89 8732.65,15149.46 8718.98,15219.40"/>
    <poly id="172701733" type="unknown" color="51,128,255" fill="0" layer="-1.00" shape="-5115.62,16004.56 -5263.11,15856.41 -5324.62,15712.53 -5259.84,15433.37 -5197.88,15143.07 -5134.25,14851.64 -5068.57,14564.41 -4987.70,14420.53 -4911.50,14313.40 -4752.35,14087.07 -4590.47,13856.31 -4535.31,13770.38 -4537.79,13630.17 -4463.79,13630.60 -4439.36,13617.15 -4229.01,13493.72 -3953.67,13554.25 -3697.69,13613.75 -3440.32,13672.83 -3182.71,13731.01 -2930.80,13788.64 -2641.67,13767.39 -2352.27,13743.86 -2049.13,13720.96 -1753.72,13699.26 -1453.38,13675.34 -1192.45,13743.60 -1155.16,13753.47 -931.30,13812.78 -612.70,13896.93 -316.77,13973.49 -83.21,14035.24 169.61,14101.28 435.38,14170.82 703.69,14241.80 1020.89,14323.78 1299.80,14395.61 1595.36,14473.98 1877.36,14548.78 2100.64,14608.87 2387.36,14683.52 2717.74,14771.18 3016.88,14850.56 3269.55,14917.62 3548.81,14990.46 3851.20,15069.81 4135.25,15152.61 4392.32,15230.89 4499.14,15263.42 4614.97,15298.17 4841.04,15365.98 5115.18,15446.03 5432.78,15535.12 5585.16,15519.40 5763.43,15501.02 6015.28,15404.43 6302.60,15289.54 6548.04,15195.12 6846.65,15080.27 7049.65,14899.93 7324.91,14778.82 7627.65,14643.81 7937.82,14507.39 8254.28,14354.07 8369.46,14371.60 8486.80,14432.51 8692.09,14585.71 8745.18,14708.05 8850.06,14876.66 8787.40,15052.57 8713.54,15237.30 8665.84,15388.53 8690.11,15438.49 8757.46,15473.03"/>
    <poly id="172701734" type="unknown" color="51,128,255" fill="0" layer="-1.00" shape="10184.93,14709.97 9920.46,14756.09 9740.75,14788.29 9437.04,14820.61 9243.27,14821.99 9144.35,14858.94 8979.28,14897.69 8858.47,15071.31 8706.20,15323.07 8715.69,15369.76 8747.71,15396.48"/>
    <poly id="172701735" type="unknown" color="51,128,255" fill="0" layer="-1.00" shape="8808.90,15638.43 8770.24,15669.18 8785.41,15809.36 8906.32,15930.07 9157.59,16121.29 9388.30,16297.84 9394.27,16484.79 9356.17,16659.74 9244.89,16908.48 9091.13,17078.85 8983.32,17241.73 8846.64,17453.50 8701.56,17687.34 8622.54,17904.03"/>
    <poly id="172701739" type="unknown" color="51,128,255" fill="0" layer="-1.00" shape="7043.35,18363.56 7064.09,18318.01 7118.17,18194.38 7162.96,18060.46 7268.04,17888.89 7357.93,17799.93 7549.69,17615.45 7645.90,17427.29 7732.46,17239.64 7833.60,17004.13 7929.41,16798.69 8014.02,16600.10 8089.45,16426.59 8135.51,16314.40 8186.82,16130.81 8237.74,15999.19 8288.04,15868.41 8362.43,15688.12 8449.86,15714.12 8646.60,15768.25 8689.87,15734.45 8688.99,15657.79 8759.45,15572.17"/>
    <poly id="172701742" type="unknown" color="51,128,255" fill="1" layer="-1.00" shape="8409.01,14403.25 8388.42,14489.21 8504.35,14492.78 8515.40,14460.87 8456.12,14437.04 8459.29,14422.86 8409.01,14403.25"/>
    <poly id="172704254" type="building" color="255,230,230" fill="1" layer="-1.00" shape="7264.77,16322.02 7246.55,16358.39 7259.07,16364.60 7272.15,16338.51 7281.30,16343.04 7288.07,16346.41 7294.85,16349.78 7301.63,16353.14 7315.71,16360.12 7313.03,16365.47 7325.76,16371.79 7337.91,16347.53 7342.53,16349.82 7349.27,16353.16 7355.35,16356.19 7361.48,16359.23 7364.71,16360.82 7395.57,16299.23 7391.01,16296.97 7385.13,16294.04 7379.80,16291.40 7373.02,16288.04 7368.60,16285.85 7377.20,16268.71 7351.03,16255.73 7341.04,16250.76 7317.69,16239.17 7310.30,16253.92 7301.18,16249.40 7264.77,16322.02"/>
    <poly id="173979135" type="military" color="153,153,92" fill="1" layer="-3.00" shape="3567.23,15980.84 3553.32,15775.40 3608.69,15768.08 3597.09,15679.67 3847.69,15601.17 3839.02,15498.32 4451.39,15320.30 4516.90,15974.13 4465.94,15997.29 4403.64,16014.88 4345.19,16006.40 4302.30,15994.21 4292.88,15922.32 3777.10,15942.90 3776.56,15969.34 3567.23,15980.84"/>
    <poly id="176162456" type="amenity" color="237,199,199" fill="1" layer="-1.00" shape="2334.70,14568.32 2330.83,14656.20 2370.92,14657.93 2375.64,14564.15 2334.70,14568.32"/>
    <poly id="190261081" type="unknown" color="51,128,255" fill="0" layer="-1.00" shape="5195.29,17545.33 5268.05,17415.39 5510.20,17337.89 5736.09,17267.28 5866.49,17257.98 5900.67,17230.21 6036.57,17032.95 6153.72,16860.80 6300.96,16650.37 6408.52,16476.27 6519.02,16413.02 6654.38,16457.99 6750.17,16436.10"/>
    <poly id="190261092" type="unknown" color="51,128,255" fill="0" layer="-1.00" shape="5763.43,15501.02 5762.85,15513.05 5934.63,15459.93 6123.85,15456.79 6258.59,15547.63 6364.27,15780.52 6423.66,16002.51 6477.65,16205.83 6408.14,16361.85 6295.18,16538.81 6125.18,16820.37 5999.85,17016.06 5896.97,17183.25 5747.27,17302.46 5589.32,17424.75 5370.35,17594.30 5272.04,17671.30"/>
    <poly id="190261115" type="unknown" color="51,128,255" fill="1" layer="-1.00" shape="6713.07,16507.15 6823.30,16442.57 6781.95,16372.74 6644.21,16453.44 6698.89,16483.35 6708.63,16497.16 6713.07,16507.15"/>
    <poly id="204969675" type="industrial" color="209,209,204" fill="0" layer="-3.00" shape="5498.59,17934.01 6430.66,16488.01 6469.33,16410.47 6481.29,16374.97 6496.97,16319.52 6502.04,16261.69 6711.38,16271.81 6722.51,16272.34 6707.84,16412.30 6785.28,16369.07 6897.45,16564.40 6904.18,16576.12"/>
    <poly id="204969676" type="industrial" color="209,209,204" fill="1" layer="-3.00" shape="6858.30,16842.72 6990.19,16900.03 7034.98,16798.40 6826.19,16444.84 6713.51,16510.81 6861.19,16767.88 6867.71,16794.79 6869.19,16811.79 6867.63,16827.26 6858.30,16842.72"/>
    <poly id="204969682" type="water" color="181,209,209" fill="0" layer="-4.00" shape="4634.18,15986.35 4674.65,15959.98 4681.69,15927.47 4785.15,15820.11 4824.58,15801.94 4853.79,15821.40 4885.15,15783.63 4911.20,15774.67 5253.58,15675.82 5257.65,15674.64 5293.96,15664.17 5309.41,15659.70 5380.67,15644.70 5468.75,15609.20 5566.15,15594.69 5707.65,15539.39 5743.39,15546.02"/>
    <poly id="204969685" type="water" color="181,209,209" fill="0" layer="-4.00" shape="4286.12,16627.28 4348.71,16641.60 4402.61,16612.66 4473.95,16583.52 4545.11,16507.09 4701.00,16448.02 4793.22,16404.04 4808.45,16352.82 4796.34,16294.27 4767.92,16149.21 4780.89,16105.31 4939.94,15991.12 5020.25,15952.32 5133.27,15870.36 5241.27,15857.69 5351.52,15810.37 5407.24,15741.01 5410.42,15712.69 5379.89,15679.53 5380.67,15644.70"/>
    <poly id="204969698" type="historic" color="128,255,128" fill="1" layer="-1.00" shape="5008.42,15365.40 4992.35,15352.52 4974.54,15340.59 4977.73,15256.03 5081.88,15223.83 5196.96,15145.07 5308.56,15165.57 5388.02,15210.70 5487.07,15224.66 5491.56,15350.36 5459.36,15349.22 5481.69,15565.12 5351.11,15570.01 5130.54,15640.47 5054.58,15438.27 5028.04,15396.37 5008.42,15365.40"/>
    <poly id="204969698#1" type="tourism" color="207,245,201" fill="1" layer="-2.00" shape="5008.42,15365.40 4992.35,15352.52 4974.54,15340.59 4977.73,15256.03 5081.88,15223.83 5196.96,15145.07 5308.56,15165.57 5388.02,15210.70 5487.07,15224.66 5491.56,15350.36 5459.36,15349.22 5481.69,15565.12 5351.11,15570.01 5130.54,15640.47 5054.58,15438.27 5028.04,15396.37 5008.42,15365.40"/>
    <poly id="204969699" type="forest" color="140,196,107" fill="1" layer="-4.00" shape="4315.20,16057.77 4174.92,15988.92 3851.12,16015.41 3679.73,16027.96 3653.87,16054.79 3906.41,16896.15 4116.03,17602.12 4141.53,17594.20 3828.30,16499.51 3832.09,16465.94 3909.84,16432.72 3892.04,16368.27 3925.90,16309.00 4258.10,16116.61 4313.81,16075.62 4315.20,16057.77"/>
    <poly id="204969701" type="forest" color="140,196,107" fill="1" layer="-4.00" shape="4174.93,16701.39 4303.13,16871.66 4343.91,16928.44 4581.27,17114.73 4669.22,17156.32 4778.53,17130.02 4992.77,17030.01 4992.36,16939.62 4930.23,16928.99 4804.06,16952.88 4777.19,16920.84 4753.54,16662.90 4723.18,16536.20 4664.05,16534.04 4624.30,16457.61 4470.72,16590.30 4357.86,16636.53 4265.04,16628.47 4192.55,16662.84 4174.93,16701.39"/>
    <poly id="204970333" type="water" color="181,209,209" fill="0" layer="-4.00" shape="7704.48,14344.00 7508.63,14359.11 7432.61,14372.07 7375.85,14368.77 7237.72,14337.31"/>
    <poly id="235626362" type="building" color="255,230,230" fill="1" layer="-1.00" shape="7811.01,16726.63 7868.77,16751.58 7883.29,16718.30 7825.52,16693.35 7811.01,16726.63"/>
    <poly id="235626362#1" type="shop" color="237,199,255" fill="1" layer="-1.00" shape="7811.01,16726.63 7868.77,16751.58 7883.29,16718.30 7825.52,16693.35 7811.01,16726.63"/>
    <poly id="235627303" type="natural" color="140,196,107" fill="1" layer="-4.00" shape="8823.89,16601.21 8866.74,16596.37 8878.85,16633.47 8870.31,16707.04 8863.28,16776.38 8839.12,16846.81 8797.01,16887.13 8691.92,17015.55 8611.55,17118.94 8662.21,17152.52 8681.28,17198.27 8656.11,17247.40 8611.78,17255.06 8574.66,17258.60 8568.74,17269.82 8557.36,17417.07 8543.86,17452.25 8498.90,17492.51 8497.13,17510.91 8549.88,17584.23 8684.66,17690.32 8732.56,17793.32 8674.05,17871.59 8471.08,17754.27 8400.19,17883.36 8360.44,17949.23 8281.29,17915.10 8207.83,17881.09 8040.24,17850.93 7992.16,17804.96 7952.19,17766.77 7913.08,17729.38 7835.91,17655.62 7819.60,17524.13 7964.98,17530.57 8063.07,17428.45 7948.98,17241.81 7963.98,17188.78 8170.93,16950.05 8220.13,16950.99 8249.96,16884.62 8333.10,16848.44 8408.68,16698.17 8575.47,16621.96 8746.75,16609.66 8823.89,16601.21"/>
    <poly id="280416647" type="amenity" color="237,199,199" fill="0" layer="-1.00" shape="3822.93,16753.24 3746.19,16504.27"/>
    <poly id="284790867" type="residential" color="235,235,227" fill="0" layer="-3.00" shape="918.49,14520.26 1206.95,14527.53 1862.47,14544.06 1879.14,14558.23 2121.48,15158.79 2192.06,15178.82 2221.73,15187.24 2274.84,15209.97 2434.74,15304.79 2382.21,15339.67 2377.16,15478.67 2379.20,15545.01 2721.52,15552.49 2748.19,15661.15 2770.99,15720.74 2788.47,15716.74 2786.48,15707.80 2782.78,15698.96 2842.43,15681.39 2849.19,15701.04 2891.25,15693.82 2971.59,15700.88 3034.80,15695.33 3034.94,15695.75 3044.69,15724.45 3175.13,15713.12 3235.40,15703.37 3315.44,15687.49 3447.03,15701.95 3596.27,15680.29 3844.21,15597.48 3834.36,15494.52 4176.24,15399.18 4350.80,15335.71 4283.60,15171.54 4240.17,15098.48"/>
    <poly id="284790880" type="residential" color="235,235,227" fill="0" layer="-3.00" shape="1877.19,16337.99 1912.17,16465.23 1959.92,16743.65 1976.69,17215.00"/>
    <poly id="284797687" type="residential" color="235,235,227" fill="0" layer="-3.00" shape="2137.76,16163.32 2187.50,16417.37 2198.87,16437.30 2295.22,16541.12 2264.10,16566.66 2511.20,16841.12 2521.30,16859.71 2528.91,16883.94 2532.77,16905.72 2534.60,16935.50 2535.06,16961.47 2529.41,16984.02 2520.58,16999.43 2235.00,17351.91 2074.80,17229.43 2062.51,17220.88 2050.56,17216.05 1976.69,17215.00"/>
    <poly id="284812376" type="landuse" color="194,194,130" fill="1" layer="-3.00" shape="2773.07,16438.67 2843.41,16470.11 2886.82,16453.88 2881.99,16403.52 2847.64,16413.78 2823.06,16419.10 2807.60,16419.12 2794.99,16420.81 2786.58,16422.89 2773.07,16438.67"/>
    <poly id="284812378" type="military" color="153,153,92" fill="0" layer="-3.00" shape="2717.14,16084.89 2716.87,16054.37 2671.75,16054.44 2600.07,16062.16 2523.26,16076.13 2423.53,16097.84 2363.01,16099.66 2180.58,16138.64 2172.57,16140.76 2167.03,16147.06 2163.71,16152.12 2159.18,16163.03"/>
    <poly id="284812380" type="residential" color="235,235,227" fill="0" layer="-3.00" shape="3746.19,16504.27 3952.90,16420.30 3997.21,16522.52 3987.49,16536.97 3994.52,16553.82 4012.09,16555.61 4130.95,16673.45 4130.68,16688.07 4135.67,16701.76 4146.10,16706.14 4161.89,16704.34 4303.13,16871.66 4343.50,16921.39 4453.02,17032.78 4717.55,17198.09 4630.24,17273.37 4771.33,17353.79 4727.38,17469.60 4737.78,17506.24"/>
    <poly id="284812385" type="commercial" color="209,209,204" fill="0" layer="-3.00" shape="3083.12,16053.35 2717.14,16084.89"/>
    <poly id="284812386" type="amenity" color="237,199,199" fill="0" layer="-1.00" shape="3083.12,16053.35 3090.01,16376.37"/>
    <poly id="284812387" type="military" color="153,153,92" fill="0" layer="-3.00" shape="2717.14,16084.89 2710.47,16324.52 2711.67,16475.95"/>
    <poly id="284812388" type="amenity" color="237,199,199" fill="0" layer="-1.00" shape="3746.19,16504.27 3627.97,16124.94 3621.37,16037.83 3083.12,16053.35"/>
    <poly id="284812390" type="commercial" color="209,209,204" fill="0" layer="-3.00" shape="2843.41,16470.11 2886.82,16453.88 2896.92,16450.10 2893.64,16399.51 2959.91,16388.00 3090.01,16376.37"/>
    <poly id="284812393" type="amenity" color="237,199,199" fill="0" layer="-1.00" shape="3090.01,16376.37 3091.74,16398.29 3184.01,16392.58 3209.96,16467.42 3379.22,16543.96 3471.73,16861.51 3675.99,16798.03 3736.21,16778.13 3822.93,16753.24"/>
    <poly id="284820492" type="tourism" color="207,245,201" fill="1" layer="-2.00" shape="2864.35,15754.16 2863.80,15742.22 2862.23,15725.70 2861.24,15714.35 2861.39,15701.23 2891.16,15699.22 2925.42,15702.24 2970.22,15703.63 2971.96,15713.66 3009.13,15852.58 3026.61,15918.98 3046.49,15991.24 2989.93,15993.64 2927.39,15998.25 2910.16,15999.72 2863.09,16003.88 2856.78,15990.74 2853.49,15979.70 2831.10,15922.70 2854.71,15917.06 2881.41,15915.34 2899.81,15897.73 2892.62,15888.38 2884.04,15878.02 2875.89,15867.23 2865.87,15857.95 2810.94,15866.98 2808.48,15858.32 2807.14,15856.33 2799.57,15823.11 2788.71,15769.96 2831.63,15761.68 2864.35,15754.16"/>