<?xml version="1.0" encoding="UTF-8"?>
<!-- generated on 2020-03-18 19:14:11.506768 by $Id$
  options: -n map.net.xml -r map.rou.xml -e 100 -l
-->
<routes xmlns:xsi="http://www.w3.org/2001/XMLSchema-instance" xsi:noNamespaceSchemaLocation="http://sumo.dlr.de/xsd/routes_file.xsd">
    <trip id="0" depart="0.00" from="421253523" to="-284769163#0"/>
    <trip id="1" depart="1.00" from="170455204#0" to="191229331#6"/>
    <trip id="2" depart="2.00" from="-717496193" to="-213101452#0"/>
    <trip id="3" depart="3.00" from="-421459257#4" to="-421459074#0"/>
    <trip id="4" depart="4.00" from="-421765560" to="774983111"/>
    <trip id="5" depart="5.00" from="284769163#1" to="-421459078#1"/>
    <trip id="6" depart="6.00" from="-421459114" to="-421966398"/>
    <trip id="7" depart="7.00" from="421459179#2" to="403439383#1"/>
    <trip id="8" depart="8.00" from="188594986#4" to="410252056#1"/>
    <trip id="9" depart="9.00" from="421944726#1" to="421944764#2"/>
    <trip id="10" depart="10.00" from="-560621233#7" to="-698298773#1"/>
    <trip id="11" depart="11.00" from="421459071" to="404293340#0"/>
    <trip id="12" depart="12.00" from="-369852722#1" to="-421459065"/>
    <trip id="13" depart="13.00" from="-173979133#6" to="421459108"/>
    <trip id="14" depart="14.00" from="421800408" to="410252079#2"/>
    <trip id="15" depart="15.00" from="-173979133#1" to="-423587808"/>
    <trip id="16" depart="16.00" from="170455204#5" to="-421459206#0"/>
    <trip id="17" depart="17.00" from="191229331#5" to="421459230"/>
    <trip id="18" depart="18.00" from="560621339#0" to="-698208088#3"/>
    <trip id="19" depart="19.00" from="-421944728#0" to="-284769163#0"/>
    <trip id="20" depart="20.00" from="-404293321#1" to="-421944782#0"/>
    <trip id="21" depart="21.00" from="45734464#10" to="773824896"/>
    <trip id="22" depart="22.00" from="-421459076#1" to="-204969696#2"/>
    <trip id="23" depart="23.00" from="502565722#0" to="-404293334#0"/>
    <trip id="24" depart="24.00" from="-421459222#0" to="204969657#1"/>
    <trip id="25" depart="25.00" from="-717075591" to="594082010#5"/>
    <trip id="26" depart="26.00" from="-410252075#2" to="404278388#2"/>
    <trip id="27" depart="27.00" from="404293340#1" to="-421459260#0"/>
    <trip id="28" depart="28.00" from="-168924273#6" to="403439384#0"/>
    <trip id="29" depart="29.00" from="-421436346#0" to="-169501724#0"/>
    <trip id="30" depart="30.00" from="-204969706#5" to="421459252#0"/>
    <trip id="31" depart="31.00" from="-421459191#1" to="-188616213"/>
    <trip id="32" depart="32.00" from="-421966409#4" to="404278409#2"/>
    <trip id="33" depart="33.00" from="410265284#3" to="698866480"/>
    <trip id="34" depart="34.00" from="404278388#1" to="-369852721#0"/>
    <trip id="35" depart="35.00" from="410252041#0" to="-421459223#4"/>
    <trip id="36" depart="36.00" from="188594986#0" to="560883549#0"/>
    <trip id="37" depart="37.00" from="-369852719#1" to="258237309#1"/>
    <trip id="38" depart="38.00" from="-410252073#2" to="-370566374#9"/>
    <trip id="39" depart="39.00" from="421966408#0" to="-421738718#0"/>
    <trip id="40" depart="40.00" from="421730701#3" to="421459116"/>
    <trip id="41" depart="41.00" from="284769163#2" to="421459247#0"/>
    <trip id="42" depart="42.00" from="421459252#0" to="404293312"/>
    <trip id="43" depart="43.00" from="581371938#0" to="-630952900#9"/>
    <trip id="44" depart="44.00" from="-370566369#0" to="173979124#0"/>
    <trip id="45" depart="45.00" from="-370566369#4" to="204969696#1"/>
    <trip id="46" depart="46.00" from="699372444#4" to="706345592"/>
    <trip id="47" depart="47.00" from="-421459204#2" to="-410266837#1"/>
    <trip id="48" depart="48.00" from="421949430#4" to="344472569#1"/>
    <trip id="49" depart="49.00" from="-421459246#1" to="630952899#0"/>
    <trip id="50" depart="50.00" from="-560891193#1" to="421730704#0"/>
    <trip id="51" depart="51.00" from="421731260#1" to="-421966401"/>
    <trip id="52" depart="52.00" from="421459204#0" to="421966407"/>
    <trip id="53" depart="53.00" from="-421730695" to="403447984#2"/>
    <trip id="54" depart="54.00" from="258237309#1" to="404293319#0"/>
    <trip id="55" depart="55.00" from="188616213" to="421731260#1"/>
    <trip id="56" depart="56.00" from="410252079#2" to="-421936101#0"/>
    <trip id="57" depart="57.00" from="447156719#0" to="191229331#6"/>
    <trip id="58" depart="58.00" from="560621372" to="-204969657#0"/>
    <trip id="59" depart="59.00" from="-404278416#7" to="-718299902#1"/>
    <trip id="60" depart="60.00" from="421459260#0" to="-421459200#1"/>
    <trip id="61" depart="61.00" from="-421738706" to="-421738715"/>
    <trip id="62" depart="62.00" from="421436343#3" to="-421730706#1"/>
    <trip id="63" depart="63.00" from="-421459073" to="-423587808"/>
    <trip id="64" depart="64.00" from="-423587813#4" to="-173979133#6"/>
    <trip id="65" depart="65.00" from="176333818#1" to="717462000"/>
    <trip id="66" depart="66.00" from="-369852719#2" to="404293295#1"/>
    <trip id="67" depart="67.00" from="-410252052#0" to="-404293339#0"/>
    <trip id="68" depart="68.00" from="-717462000" to="191229331#5"/>
    <trip id="69" depart="69.00" from="421459060" to="-421966400#1"/>
    <trip id="70" depart="70.00" from="-421459231#0" to="-421459228#3"/>
    <trip id="71" depart="71.00" from="-423587787#2" to="404278390#0"/>
    <trip id="72" depart="72.00" from="594082010#2" to="-421730691#4"/>
    <trip id="73" depart="73.00" from="404278371#0" to="421459170#1"/>
    <trip id="74" depart="74.00" from="-421459183#0" to="-752912772#0"/>
    <trip id="75" depart="75.00" from="-404293281#0" to="421436326#0"/>
    <trip id="76" depart="76.00" from="89892485#1" to="-422003954#0"/>
    <trip id="77" depart="77.00" from="168923893#1" to="-630952899#0"/>
    <trip id="78" depart="78.00" from="581371938#0" to="773581323"/>
    <trip id="79" depart="79.00" from="421459256#3" to="-421944758#6"/>
    <trip id="80" depart="80.00" from="-421253531#4" to="421459078#0"/>
    <trip id="81" depart="81.00" from="-421459261#0" to="-404278372#16"/>
    <trip id="82" depart="82.00" from="-421944717#0" to="-421731272#0"/>
    <trip id="83" depart="83.00" from="594082043#1" to="405643434#2"/>
    <trip id="84" depart="84.00" from="776560521#1" to="258237309#1"/>
    <trip id="85" depart="85.00" from="404293376#1" to="168923897#11"/>
    <trip id="86" depart="86.00" from="-423587812" to="560621233#9"/>
    <trip id="87" depart="87.00" from="-421459050" to="235103522#8"/>
    <trip id="88" depart="88.00" from="-421436319#0" to="172701732"/>
    <trip id="89" depart="89.00" from="604129885" to="421459126"/>
    <trip id="90" depart="90.00" from="-404293290" to="-421966401"/>
    <trip id="91" depart="91.00" from="404293380#0" to="421966411#4"/>
    <trip id="92" depart="92.00" from="421966411#2" to="717496193"/>
    <trip id="93" depart="93.00" from="-421944753#2" to="708413290#0"/>
    <trip id="94" depart="94.00" from="-421253524" to="-169502163#0"/>
    <trip id="95" depart="95.00" from="421459263#33" to="170455126"/>
    <trip id="96" depart="96.00" from="421459064" to="-370566374#12"/>
    <trip id="97" depart="97.00" from="-777698870#1" to="421949430#0"/>
    <trip id="98" depart="98.00" from="287870802#7" to="404293319#0"/>
    <trip id="99" depart="99.00" from="168923899#10" to="421459231#1"/>
</routes>
