<configuration>
  <input>
    <net-file value="hariNargar.net.xml"/>
    <route-files value="hariNagar.rou.xml" />
  </input>

  <time>
    <begin value="0"/>
    <end value="1000"/>
  </time>
</configuration>
